XFLR5 v6.09.01 beta

 Calculated polar for: NACA 4412

 1 1 Reynolds number fixed          Mach number fixed         

 xtrf =   1.000 (top)        1.000 (bottom)
 Mach =   0.139     Re =     3.000 e 6     Ncrit =   9.000

  alpha     CL        CD       CDp       Cm    Top Xtr Bot Xtr   Cpmin    Chinge    XCp    
 ------- -------- --------- --------- -------- ------- ------- -------- --------- ---------
 -10.000  -0.6552   0.01129   0.00735  -0.1063  0.9208  0.0121  -7.5057   0.0000   0.0745
  -9.500  -0.6010   0.01052   0.00643  -0.1058  0.9059  0.0124  -6.9261   0.0000   0.0610
  -9.000  -0.5465   0.00956   0.00526  -0.1054  0.8947  0.0133  -6.3938   0.0000   0.0443
  -8.500  -0.4909   0.00892   0.00445  -0.1050  0.8790  0.0144  -5.8616   0.0000   0.0233
  -8.000  -0.4341   0.00839   0.00386  -0.1048  0.8655  0.0162  -5.3317   0.0000  -0.0045
  -7.500  -0.3772   0.00804   0.00346  -0.1046  0.8481  0.0181  -4.8105   0.0000  -0.0408
  -7.000  -0.3195   0.00782   0.00318  -0.1046  0.8311  0.0187  -4.2998   0.0000  -0.0914
  -6.500  -0.2619   0.00747   0.00273  -0.1046  0.8154  0.0206  -3.8240   0.0000  -0.1645
  -6.000  -0.2048   0.00715   0.00236  -0.1045  0.7951  0.0244  -3.3931   0.0000  -0.2775
  -5.500  -0.1474   0.00699   0.00213  -0.1044  0.7708  0.0267  -3.0202   0.0000  -0.4798
  -5.000  -0.0896   0.00676   0.00184  -0.1045  0.7511  0.0318  -2.6681   0.0000  -0.9463
  -4.500  -0.0318   0.00660   0.00164  -0.1046  0.7298  0.0360  -2.3285   0.0000  -3.1122
  -4.000   0.0257   0.00646   0.00145  -0.1046  0.7039  0.0439  -2.0076   0.0000   4.4040
  -3.500   0.0832   0.00637   0.00130  -0.1046  0.6784  0.0518  -1.7019   0.0000   1.5272
  -3.000   0.1406   0.00628   0.00117  -0.1047  0.6516  0.0644  -1.4286   0.0000   1.0041
  -2.500   0.1979   0.00622   0.00107  -0.1047  0.6232  0.0791  -1.1986   0.0000   0.7844
  -2.000   0.2552   0.00617   0.00100  -0.1048  0.5968  0.0988  -0.9798   0.0000   0.6635
  -1.500   0.3126   0.00615   0.00096  -0.1049  0.5721  0.1215  -0.7827   0.0000   0.5869
  -1.000   0.3702   0.00608   0.00093  -0.1051  0.5515  0.1538  -0.7028   0.0000   0.5340
  -0.500   0.4275   0.00606   0.00094  -0.1052  0.5293  0.1886  -0.7445   0.0000   0.4954
   0.000   0.4846   0.00606   0.00097  -0.1054  0.5070  0.2323  -0.7890   0.0000   0.4659
   0.500   0.5421   0.00602   0.00101  -0.1056  0.4926  0.2847  -0.8346   0.0000   0.4426
   1.000   0.5994   0.00597   0.00108  -0.1058  0.4763  0.3525  -0.8831   0.0000   0.4238
   1.500   0.6560   0.00573   0.00117  -0.1060  0.4637  0.5118  -0.9332   0.0000   0.4083
   2.000   0.7121   0.00549   0.00131  -0.1060  0.4491  0.6866  -0.9854   0.0000   0.3952
   2.500   0.7660   0.00518   0.00147  -0.1054  0.4396  0.8788  -1.0405   0.0000   0.3834
   3.000   0.8269   0.00519   0.00161  -0.1062  0.4223  0.9995  -1.1042   0.0000   0.3737
   3.500   0.8838   0.00533   0.00172  -0.1063  0.4127  1.0000  -1.1715   0.0000   0.3650
   4.000   0.9392   0.00558   0.00188  -0.1060  0.3913  1.0000  -1.2476   0.0000   0.3571
   4.500   0.9936   0.00591   0.00208  -0.1057  0.3630  1.0000  -1.3675   0.0000   0.3500
   5.000   1.0469   0.00632   0.00233  -0.1051  0.3295  1.0000  -1.5377   0.0000   0.3435
   5.500   1.0986   0.00685   0.00266  -0.1043  0.2888  1.0000  -1.7420   0.0000   0.3374
   6.000   1.1489   0.00747   0.00308  -0.1033  0.2466  1.0000  -1.9662   0.0000   0.3318
   6.500   1.1962   0.00831   0.00362  -0.1018  0.1907  1.0000  -2.2165   0.0000   0.3263
   7.000   1.2420   0.00922   0.00426  -0.1000  0.1405  1.0000  -2.4723   0.0000   0.3211
   7.500   1.2872   0.01012   0.00494  -0.0982  0.0982  1.0000  -2.7552   0.0000   0.3162
   8.000   1.3321   0.01099   0.00562  -0.0962  0.0686  1.0000  -3.0790   0.0000   0.3115
   8.500   1.3770   0.01178   0.00629  -0.0943  0.0508  1.0000  -3.4150   0.0000   0.3070
   9.000   1.4216   0.01251   0.00696  -0.0924  0.0395  1.0000  -3.7634   0.0000   0.3027
   9.500   1.4653   0.01321   0.00764  -0.0903  0.0324  1.0000  -4.1209   0.0000   0.2986
  10.000   1.5044   0.01397   0.00838  -0.0873  0.0262  1.0000  -4.4746   0.0000   0.2942
  10.500   1.5389   0.01484   0.00923  -0.0836  0.0219  1.0000  -4.8252   0.0000   0.2897
  11.000   1.5737   0.01574   0.01015  -0.0801  0.0186  1.0000  -5.2451   0.0000   0.2855
  11.500   1.6079   0.01669   0.01114  -0.0768  0.0173  1.0000  -5.6780   0.0000   0.2815
  12.000   1.6371   0.01798   0.01244  -0.0730  0.0148  1.0000  -6.0985   0.0000   0.2774
  12.500   1.6625   0.01955   0.01408  -0.0689  0.0121  1.0000  -6.5026   0.0000   0.2733
  13.000   1.6926   0.02094   0.01553  -0.0658  0.0120  1.0000  -6.9580   0.0000   0.2698
  13.500   1.7197   0.02259   0.01725  -0.0627  0.0116  1.0000  -7.4088   0.0000   0.2664
  14.000   1.7421   0.02468   0.01940  -0.0594  0.0107  1.0000  -7.8414   0.0000   0.2630
  14.500   1.7592   0.02733   0.02211  -0.0561  0.0096  1.0000  -8.2472   0.0000   0.2597
  15.000   1.7714   0.03052   0.02540  -0.0528  0.0085  1.0000  -8.6215   0.0000   0.2566
  15.500   1.7784   0.03443   0.02945  -0.0499  0.0078  1.0000  -8.9623   0.0000   0.2537
  16.000   1.7821   0.03900   0.03419  -0.0475  0.0073  1.0000  -9.2816   0.0000   0.2512
  16.500   1.7786   0.04456   0.03995  -0.0456  0.0070  1.0000  -9.5493   0.0000   0.2489
  17.000   1.7771   0.05029   0.04584  -0.0445  0.0069  1.0000  -9.8475   0.0000   0.2471
  17.500   1.7793   0.05588   0.05155  -0.0440  0.0068  1.0000  -10.1828   0.0000   0.2455
  18.000   1.7793   0.06187   0.05766  -0.0439  0.0068  1.0000  -10.5059   0.0000   0.2442
  18.500   1.7772   0.06817   0.06408  -0.0441  0.0068  1.0000  -10.8172   0.0000   0.2430
  19.000   1.7718   0.07502   0.07104  -0.0446  0.0067  1.0000  -11.1031   0.0000   0.2421
  19.500   1.7630   0.08251   0.07867  -0.0456  0.0066  1.0000  -11.3550   0.0000   0.2414
  20.000   1.7501   0.09067   0.08698  -0.0471  0.0064  1.0000  -11.5649   0.0000   0.2411
  20.500   1.7333   0.09936   0.09582  -0.0490  0.0063  1.0000  -11.7320   0.0000   0.2411
  21.000   1.7140   0.10856   0.10516  -0.0514  0.0060  1.0000  -11.8639   0.0000   0.2414
  21.500   1.6929   0.11828   0.11504  -0.0546  0.0058  1.0000  -11.9644   0.0000   0.2422
  22.000   1.6701   0.12848   0.12538  -0.0584  0.0055  1.0000  -12.0287   0.0000   0.2436
  22.500   1.6453   0.13920   0.13624  -0.0631  0.0052  1.0000  -12.0488   0.0000   0.2455
  23.000   1.6158   0.15074   0.14795  -0.0687  0.0050  1.0000  -11.9934   0.0000   0.2482
  23.500   1.5842   0.16330   0.16069  -0.0755  0.0047  1.0000  -11.9037   0.0000   0.2519
  24.000   1.5556   0.17583   0.17339  -0.0829  0.0045  1.0000  -11.8109   0.0000   0.2561
  24.500   1.5271   0.18887   0.18661  -0.0912  0.0043  1.0000  -11.6720   0.0000   0.2611
  25.000   1.4920   0.20405   0.20198  -0.1014  0.0042  1.0000  -11.3756   0.0000   0.2681


