XFLR5 v6.09.01 beta

 Calculated polar for: NACA 2412

 1 1 Reynolds number fixed          Mach number fixed         

 xtrf =   1.000 (top)        1.000 (bottom)
 Mach =   0.139     Re =     3.000 e 6     Ncrit =   9.000

  alpha     CL        CD       CDp       Cm    Top Xtr Bot Xtr   Cpmin    Chinge    XCp    
 ------- -------- --------- --------- -------- ------- ------- -------- --------- ---------
 -10.000  -0.8792   0.01081   0.00633  -0.0577  0.9853  0.0134  -6.6521   0.0000   0.1731
  -9.500  -0.8217   0.01007   0.00552  -0.0579  0.9786  0.0150  -6.1185   0.0000   0.1689
  -9.000  -0.7694   0.00949   0.00493  -0.0568  0.9675  0.0170  -5.6147   0.0000   0.1660
  -8.500  -0.7155   0.00907   0.00447  -0.0560  0.9541  0.0184  -5.1153   0.0000   0.1620
  -8.000  -0.6604   0.00876   0.00412  -0.0554  0.9401  0.0188  -4.6241   0.0000   0.1567
  -7.500  -0.6058   0.00827   0.00356  -0.0548  0.9253  0.0224  -4.1711   0.0000   0.1506
  -7.000  -0.5499   0.00787   0.00316  -0.0544  0.9107  0.0257  -3.7207   0.0000   0.1423
  -6.500  -0.4934   0.00763   0.00286  -0.0542  0.8932  0.0269  -3.2979   0.0000   0.1317
  -6.000  -0.4374   0.00727   0.00249  -0.0539  0.8741  0.0346  -2.9540   0.0000   0.1185
  -5.500  -0.3807   0.00705   0.00221  -0.0536  0.8508  0.0390  -2.6176   0.0000   0.1008
  -5.000  -0.3240   0.00681   0.00194  -0.0535  0.8271  0.0468  -2.2944   0.0000   0.0766
  -4.500  -0.2672   0.00659   0.00170  -0.0533  0.8010  0.0577  -1.9877   0.0000   0.0417
  -4.000  -0.2104   0.00640   0.00150  -0.0532  0.7733  0.0718  -1.6954   0.0000  -0.0124
  -3.000  -0.0965   0.00608   0.00116  -0.0531  0.7119  0.1135  -1.2342   0.0000  -0.3141
  -2.500  -0.0395   0.00594   0.00103  -0.0531  0.6806  0.1440  -1.0257   0.0000  -1.1197
  -2.000   0.0175   0.00582   0.00094  -0.0531  0.6486  0.1784  -0.8520   0.0000   3.3337
  -1.500   0.0745   0.00572   0.00086  -0.0531  0.6165  0.2184  -0.6932   0.0000   0.9702
  -1.000   0.1314   0.00563   0.00082  -0.0532  0.5846  0.2657  -0.5563   0.0000   0.6563
  -0.500   0.1883   0.00554   0.00080  -0.0532  0.5537  0.3215  -0.5311   0.0000   0.5323
   0.000   0.2451   0.00544   0.00080  -0.0533  0.5247  0.3875  -0.5769   0.0000   0.4660
   0.500   0.3016   0.00529   0.00082  -0.0533  0.4980  0.4802  -0.6262   0.0000   0.4246
   1.000   0.3581   0.00517   0.00087  -0.0533  0.4727  0.5739  -0.6806   0.0000   0.3961
   1.500   0.4145   0.00511   0.00095  -0.0532  0.4477  0.6561  -0.7411   0.0000   0.3753
   2.000   0.4706   0.00508   0.00105  -0.0531  0.4216  0.7388  -0.8106   0.0000   0.3592
   2.500   0.5260   0.00507   0.00117  -0.0527  0.3939  0.8195  -0.8950   0.0000   0.3463
   3.000   0.5799   0.00514   0.00133  -0.0520  0.3626  0.8918  -1.0036   0.0000   0.3353
   3.500   0.6317   0.00539   0.00153  -0.0508  0.3224  0.9454  -1.1384   0.0000   0.3256
   4.000   0.6852   0.00572   0.00176  -0.0500  0.2810  0.9785  -1.3024   0.0000   0.3177
   4.500   0.7464   0.00619   0.00202  -0.0511  0.2347  0.9930  -1.5064   0.0000   0.3128
   5.000   0.8148   0.00685   0.00239  -0.0540  0.1765  0.9978  -1.7512   0.0000   0.3101
   5.500   0.8744   0.00744   0.00278  -0.0549  0.1345  1.0000  -2.0103   0.0000   0.3062
   6.000   0.9208   0.00801   0.00316  -0.0529  0.1003  1.0000  -2.2694   0.0000   0.3003
   6.500   0.9693   0.00856   0.00357  -0.0513  0.0765  1.0000  -2.5442   0.0000   0.2952
   7.000   1.0199   0.00908   0.00398  -0.0501  0.0585  1.0000  -2.8355   0.0000   0.2909
   7.500   1.0709   0.00961   0.00444  -0.0491  0.0459  1.0000  -3.1847   0.0000   0.2870
   8.000   1.1219   0.01016   0.00493  -0.0481  0.0362  1.0000  -3.5584   0.0000   0.2834
   8.500   1.1730   0.01070   0.00542  -0.0471  0.0311  1.0000  -3.9492   0.0000   0.2801
   9.000   1.2238   0.01124   0.00595  -0.0461  0.0263  1.0000  -4.3536   0.0000   0.2769
   9.500   1.2734   0.01185   0.00654  -0.0449  0.0229  1.0000  -4.7684   0.0000   0.2738
  10.500   1.3706   0.01310   0.00781  -0.0422  0.0178  1.0000  -5.6378   0.0000   0.2678
  11.000   1.4163   0.01386   0.00856  -0.0404  0.0156  1.0000  -6.0832   0.0000   0.2648
  11.500   1.4589   0.01478   0.00951  -0.0382  0.0130  1.0000  -6.5657   0.0000   0.2616
  12.000   1.5003   0.01566   0.01045  -0.0357  0.0121  1.0000  -7.0871   0.0000   0.2584
  12.500   1.5398   0.01639   0.01123  -0.0330  0.0119  1.0000  -7.6266   0.0000   0.2552
  13.000   1.5745   0.01726   0.01215  -0.0295  0.0115  1.0000  -8.1552   0.0000   0.2516
  13.500   1.6057   0.01838   0.01331  -0.0258  0.0106  1.0000  -8.6728   0.0000   0.2481
  14.000   1.6319   0.01985   0.01483  -0.0219  0.0095  1.0000  -9.1666   0.0000   0.2444
  14.500   1.6537   0.02172   0.01678  -0.0179  0.0085  1.0000  -9.6315   0.0000   0.2409
  15.000   1.6717   0.02404   0.01924  -0.0141  0.0079  1.0000  -10.0738   0.0000   0.2375
  15.500   1.6841   0.02697   0.02235  -0.0106  0.0075  1.0000  -10.4807   0.0000   0.2343
  16.000   1.6910   0.03073   0.02630  -0.0078  0.0073  1.0000  -10.8487   0.0000   0.2315
  16.500   1.6885   0.03570   0.03149  -0.0057  0.0070  1.0000  -11.1424   0.0000   0.2291
  17.000   1.6789   0.04202   0.03805  -0.0048  0.0069  1.0000  -11.3743   0.0000   0.2274
  17.500   1.6789   0.04776   0.04394  -0.0050  0.0069  1.0000  -11.7023   0.0000   0.2263
  18.000   1.6723   0.05462   0.05095  -0.0059  0.0069  1.0000  -11.9708   0.0000   0.2256
  18.500   1.6614   0.06243   0.05892  -0.0077  0.0068  1.0000  -12.1938   0.0000   0.2253
  19.000   1.6452   0.07116   0.06783  -0.0101  0.0068  1.0000  -12.3609   0.0000   0.2256
  19.500   1.6183   0.08161   0.07846  -0.0135  0.0068  1.0000  -12.4110   0.0000   0.2265
  20.000   1.5867   0.09319   0.09024  -0.0178  0.0068  1.0000  -12.3934   0.0000   0.2280
  20.500   1.5531   0.10530   0.10253  -0.0228  0.0068  1.0000  -12.3312   0.0000   0.2301
  21.000   1.5081   0.11952   0.11696  -0.0292  0.0068  1.0000  -12.1137   0.0000   0.2336
  21.500   1.4613   0.13478   0.13243  -0.0368  0.0068  1.0000  -11.8233   0.0000   0.2382
  22.000   1.4151   0.15048   0.14834  -0.0454  0.0067  1.0000  -11.4799   0.0000   0.2439
  22.500   1.3766   0.16514   0.16317  -0.0539  0.0067  1.0000  -11.1754   0.0000   0.2498
  23.000   1.3348   0.18160   0.17981  -0.0642  0.0067  1.0000  -10.7439   0.0000   0.2577
  23.500   1.3076   0.19581   0.19415  -0.0733  0.0067  1.0000  -10.4530   0.0000   0.2646
  24.000   1.2844   0.20982   0.20829  -0.0827  0.0066  1.0000  -10.1562   0.0000   0.2718
  24.500   1.2641   0.22381   0.22240  -0.0922  0.0065  1.0000  -9.8394   0.0000   0.2793
  25.000   1.2463   0.23773   0.23643  -0.1020  0.0063  1.0000  -9.4835   0.0000   0.2873


