XFLR5 v6.09.01 beta

 Calculated polar for: NACA 1412

 1 1 Reynolds number fixed          Mach number fixed         

 xtrf =   1.000 (top)        1.000 (bottom)
 Mach =   0.139     Re =     3.000 e 6     Ncrit =   9.000

  alpha     CL        CD       CDp       Cm    Top Xtr Bot Xtr   Cpmin    Chinge    XCp    
 ------- -------- --------- --------- -------- ------- ------- -------- --------- ---------
 -10.000  -1.0180   0.01113   0.00639  -0.0268  0.9959  0.0145  -6.3853   0.0000   0.2128
  -9.500  -0.9541   0.01041   0.00568  -0.0285  0.9942  0.0167  -5.8313   0.0000   0.2098
  -9.000  -0.8881   0.00987   0.00514  -0.0305  0.9928  0.0184  -5.2807   0.0000   0.2058
  -8.500  -0.8289   0.00948   0.00473  -0.0310  0.9868  0.0188  -4.7770   0.0000   0.2033
  -8.000  -0.7693   0.00888   0.00412  -0.0315  0.9795  0.0232  -4.3072   0.0000   0.2002
  -7.500  -0.7163   0.00846   0.00371  -0.0306  0.9665  0.0262  -3.8716   0.0000   0.1989
  -7.000  -0.6616   0.00812   0.00334  -0.0299  0.9533  0.0286  -3.4468   0.0000   0.1968
  -6.500  -0.6073   0.00772   0.00296  -0.0293  0.9383  0.0353  -3.0782   0.0000   0.1942
  -6.000  -0.5522   0.00740   0.00263  -0.0287  0.9201  0.0422  -2.7482   0.0000   0.1907
  -5.500  -0.4965   0.00713   0.00234  -0.0283  0.8990  0.0493  -2.4291   0.0000   0.1860
  -5.000  -0.4407   0.00686   0.00206  -0.0280  0.8749  0.0598  -2.1224   0.0000   0.1798
  -4.500  -0.3847   0.00660   0.00180  -0.0277  0.8480  0.0771  -1.8315   0.0000   0.1714
  -4.000  -0.3287   0.00633   0.00157  -0.0274  0.8184  0.0994  -1.5849   0.0000   0.1600
  -3.500  -0.2723   0.00615   0.00137  -0.0273  0.7854  0.1228  -1.3577   0.0000   0.1433
  -3.000  -0.2162   0.00594   0.00119  -0.0271  0.7484  0.1576  -1.1450   0.0000   0.1181
  -2.500  -0.1599   0.00576   0.00105  -0.0269  0.7108  0.1972  -0.9692   0.0000   0.0744
  -2.000  -0.1034   0.00560   0.00094  -0.0269  0.6745  0.2406  -0.8072   0.0000  -0.0184
  -1.500  -0.0469   0.00548   0.00085  -0.0268  0.6351  0.2891  -0.6687   0.0000  -0.3341
  -1.000   0.0096   0.00539   0.00079  -0.0268  0.5948  0.3410  -0.5521   0.0000   3.0627
  -0.500   0.0663   0.00527   0.00076  -0.0268  0.5600  0.4006  -0.4541   0.0000   0.6547
   0.000   0.1227   0.00515   0.00075  -0.0267  0.5238  0.4719  -0.4885   0.0000   0.4663
   0.500   0.1791   0.00511   0.00077  -0.0267  0.4873  0.5364  -0.5446   0.0000   0.3964
   1.000   0.2357   0.00509   0.00081  -0.0266  0.4510  0.5997  -0.6085   0.0000   0.3599
   1.500   0.2923   0.00508   0.00088  -0.0266  0.4196  0.6610  -0.6847   0.0000   0.3374
   2.000   0.3485   0.00512   0.00097  -0.0264  0.3834  0.7216  -0.7780   0.0000   0.3219
   2.500   0.4039   0.00525   0.00110  -0.0261  0.3393  0.7806  -0.8941   0.0000   0.3105
   3.000   0.4586   0.00544   0.00127  -0.0256  0.2926  0.8360  -1.0327   0.0000   0.3014
   3.500   0.5127   0.00568   0.00147  -0.0250  0.2493  0.8845  -1.1966   0.0000   0.2939
   4.000   0.5662   0.00600   0.00172  -0.0242  0.2058  0.9238  -1.3796   0.0000   0.2876
   4.500   0.6175   0.00643   0.00201  -0.0230  0.1584  0.9555  -1.5894   0.0000   0.2816
   5.000   0.6711   0.00685   0.00230  -0.0222  0.1260  0.9770  -1.8124   0.0000   0.2771
   5.500   0.7309   0.00737   0.00267  -0.0230  0.0921  0.9900  -2.0957   0.0000   0.2751
   6.000   0.7959   0.00784   0.00302  -0.0249  0.0707  0.9946  -2.4125   0.0000   0.2744
   6.500   0.8614   0.00833   0.00340  -0.0270  0.0554  0.9971  -2.7452   0.0000   0.2740
   7.000   0.9258   0.00884   0.00382  -0.0288  0.0429  0.9994  -3.0997   0.0000   0.2733
   7.500   0.9787   0.00929   0.00423  -0.0281  0.0354  1.0000  -3.4857   0.0000   0.2703
   8.000   1.0248   0.00978   0.00467  -0.0259  0.0293  1.0000  -3.8615   0.0000   0.2663
   8.500   1.0733   0.01021   0.00510  -0.0242  0.0262  1.0000  -4.2620   0.0000   0.2630
   9.000   1.1226   0.01075   0.00561  -0.0228  0.0228  1.0000  -4.6800   0.0000   0.2601
   9.500   1.1720   0.01138   0.00625  -0.0214  0.0188  1.0000  -5.1075   0.0000   0.2574
  10.000   1.2231   0.01186   0.00674  -0.0204  0.0182  1.0000  -5.5702   0.0000   0.2551
  10.500   1.2725   0.01250   0.00737  -0.0191  0.0162  1.0000  -6.0389   0.0000   0.2527
  11.000   1.3196   0.01331   0.00819  -0.0175  0.0136  1.0000  -6.5015   0.0000   0.2502
  11.500   1.3649   0.01423   0.00921  -0.0156  0.0121  1.0000  -6.9554   0.0000   0.2476
  12.000   1.4125   0.01488   0.00988  -0.0142  0.0120  1.0000  -7.5384   0.0000   0.2454
  12.500   1.4587   0.01557   0.01060  -0.0125  0.0118  1.0000  -8.1390   0.0000   0.2431
  13.000   1.5020   0.01638   0.01146  -0.0105  0.0111  1.0000  -8.7414   0.0000   0.2406
  13.500   1.5401   0.01741   0.01252  -0.0077  0.0100  1.0000  -9.3233   0.0000   0.2378
  14.000   1.5676   0.01869   0.01385  -0.0033  0.0089  1.0000  -9.8432   0.0000   0.2339
  14.500   1.5911   0.02029   0.01557   0.0012  0.0082  1.0000  -10.3366   0.0000   0.2302
  15.000   1.6101   0.02231   0.01775   0.0055  0.0077  1.0000  -10.8041   0.0000   0.2266
  15.500   1.6233   0.02493   0.02055   0.0094  0.0075  1.0000  -11.2346   0.0000   0.2232
  16.000   1.6297   0.02844   0.02428   0.0126  0.0073  1.0000  -11.6113   0.0000   0.2201
  16.500   1.6273   0.03332   0.02939   0.0146  0.0071  1.0000  -11.9112   0.0000   0.2178
  17.000   1.6136   0.04002   0.03636   0.0149  0.0069  1.0000  -12.1027   0.0000   0.2163
  17.500   1.5974   0.04795   0.04452   0.0133  0.0069  1.0000  -12.2662   0.0000   0.2159
  18.000   1.5824   0.05620   0.05296   0.0108  0.0069  1.0000  -12.4377   0.0000   0.2161
  18.500   1.5559   0.06666   0.06363   0.0068  0.0069  1.0000  -12.4793   0.0000   0.2173
  19.000   1.5167   0.07932   0.07651   0.0014  0.0069  1.0000  -12.3679   0.0000   0.2194
  19.500   1.4633   0.09472   0.09216  -0.0056  0.0069  1.0000  -12.0677   0.0000   0.2230
  20.000   1.3995   0.11247   0.11016  -0.0143  0.0069  1.0000  -11.5980   0.0000   0.2282
  20.500   1.3266   0.13260   0.13055  -0.0248  0.0069  1.0000  -10.9415   0.0000   0.2356
  21.000   1.2645   0.15213   0.15030  -0.0357  0.0069  1.0000  -10.3120   0.0000   0.2443
  21.500   1.2106   0.17095   0.16932  -0.0468  0.0069  1.0000  -9.6867   0.0000   0.2539
  22.000   1.1740   0.18759   0.18612  -0.0570  0.0069  1.0000  -9.2059   0.0000   0.2630
  23.000   1.0943   0.22768   0.22654  -0.0818  0.0068  1.0000  -7.6818   0.0000   0.2884
  23.500   1.0431   0.25628   0.25527  -0.0989  0.0066  1.0000  -6.1139   0.0000   0.3096
  25.000   1.0268   0.31206   0.31108  -0.1275  0.0041  1.0000  -3.0222   0.0000   0.3397


