XFLR5 v6.09.01 beta

 Calculated polar for: NACA 2424

 1 1 Reynolds number fixed          Mach number fixed         

 xtrf =   1.000 (top)        1.000 (bottom)
 Mach =   0.139     Re =     3.000 e 6     Ncrit =   9.000

  alpha     CL        CD       CDp       Cm    Top Xtr Bot Xtr   Cpmin    Chinge    XCp    
 ------- -------- --------- --------- -------- ------- ------- -------- --------- ---------
 -10.000  -0.8349   0.01051   0.00534  -0.0630  0.7774  0.1018  -3.1633   0.0000   0.1485
  -9.500  -0.7901   0.01023   0.00501  -0.0607  0.7597  0.1055  -2.9946   0.0000   0.1475
  -9.000  -0.7443   0.00987   0.00463  -0.0587  0.7378  0.1141  -2.8279   0.0000   0.1459
  -8.500  -0.6939   0.00963   0.00432  -0.0574  0.7132  0.1191  -2.6672   0.0000   0.1421
  -8.000  -0.6427   0.00932   0.00402  -0.0563  0.6975  0.1288  -2.5136   0.0000   0.1373
  -7.500  -0.5909   0.00907   0.00375  -0.0553  0.6766  0.1359  -2.3615   0.0000   0.1314
  -7.000  -0.5378   0.00891   0.00352  -0.0545  0.6530  0.1434  -2.2108   0.0000   0.1235
  -6.500  -0.4854   0.00866   0.00329  -0.0536  0.6353  0.1539  -2.0671   0.0000   0.1142
  -6.000  -0.4313   0.00849   0.00309  -0.0530  0.6156  0.1644  -1.9343   0.0000   0.1014
  -5.500  -0.3780   0.00833   0.00291  -0.0522  0.5939  0.1746  -1.8050   0.0000   0.0854
  -5.000  -0.3232   0.00820   0.00276  -0.0516  0.5766  0.1856  -1.6767   0.0000   0.0625
  -4.500  -0.2685   0.00805   0.00262  -0.0511  0.5585  0.1971  -1.5597   0.0000   0.0302
  -4.000  -0.2148   0.00794   0.00250  -0.0504  0.5374  0.2128  -1.4487   0.0000  -0.0166
  -3.500  -0.1582   0.00785   0.00240  -0.0502  0.5249  0.2227  -1.3367   0.0000  -0.1043
  -3.000  -0.1040   0.00774   0.00231  -0.0496  0.5064  0.2406  -1.2387   0.0000  -0.2736
  -2.500  -0.0481   0.00764   0.00224  -0.0493  0.4951  0.2566  -1.1412   0.0000  -0.8555
  -2.000   0.0074   0.00762   0.00219  -0.0489  0.4778  0.2711  -1.0504   0.0000   7.2023
  -1.500   0.0636   0.00752   0.00214  -0.0486  0.4689  0.2890  -0.9643   0.0000   1.0448
  -1.000   0.1180   0.00750   0.00213  -0.0480  0.4514  0.3089  -0.9246   0.0000   0.6653
  -0.500   0.1750   0.00741   0.00210  -0.0479  0.4452  0.3292  -0.9778   0.0000   0.5239
   0.000   0.2304   0.00743   0.00211  -0.0475  0.4336  0.3469  -1.0307   0.0000   0.4520
   0.500   0.2858   0.00740   0.00213  -0.0471  0.4213  0.3692  -1.0877   0.0000   0.4080
   1.000   0.3419   0.00735   0.00215  -0.0469  0.4146  0.3942  -1.1458   0.0000   0.3784
   1.500   0.3949   0.00738   0.00221  -0.0461  0.3988  0.4254  -1.2055   0.0000   0.3565
   2.000   0.4501   0.00732   0.00226  -0.0457  0.3917  0.4602  -1.2685   0.0000   0.3402
   2.500   0.5032   0.00736   0.00234  -0.0449  0.3798  0.4942  -1.3328   0.0000   0.3269
   3.000   0.5564   0.00742   0.00245  -0.0441  0.3666  0.5243  -1.4004   0.0000   0.3161
   3.500   0.6099   0.00748   0.00257  -0.0434  0.3575  0.5533  -1.4706   0.0000   0.3072
   4.000   0.6591   0.00764   0.00273  -0.0419  0.3411  0.5820  -1.5417   0.0000   0.2988
   4.500   0.7079   0.00770   0.00286  -0.0402  0.3346  0.6093  -1.6143   0.0000   0.2913
   5.000   0.7540   0.00794   0.00310  -0.0381  0.3178  0.6393  -1.6900   0.0000   0.2844
   5.500   0.8068   0.00809   0.00332  -0.0374  0.3108  0.6686  -1.7729   0.0000   0.2795
   6.000   0.8542   0.00841   0.00365  -0.0357  0.2952  0.7010  -1.8579   0.0000   0.2743
   6.500   0.9061   0.00862   0.00394  -0.0349  0.2869  0.7338  -1.9481   0.0000   0.2704
   7.000   0.9523   0.00901   0.00434  -0.0332  0.2727  0.7669  -2.0412   0.0000   0.2660
   7.500   1.0017   0.00930   0.00470  -0.0320  0.2631  0.8027  -2.1386   0.0000   0.2624
   8.000   1.0467   0.00974   0.00519  -0.0302  0.2506  0.8411  -2.2400   0.0000   0.2585
   8.500   1.0927   0.01017   0.00569  -0.0286  0.2397  0.8763  -2.3446   0.0000   0.2551
   9.000   1.1344   0.01069   0.00628  -0.0262  0.2294  0.9177  -2.4516   0.0000   0.2512
   9.500   1.1724   0.01131   0.00694  -0.0232  0.2175  0.9530  -2.5584   0.0000   0.2471
  10.000   1.2088   0.01203   0.00767  -0.0200  0.2081  0.9792  -2.6653   0.0000   0.2430
  11.000   1.3088   0.01394   0.00948  -0.0204  0.1856  0.9997  -2.9367   0.0000   0.2405
  11.500   1.3407   0.01490   0.01040  -0.0173  0.1756  1.0000  -3.0527   0.0000   0.2369
  12.000   1.3748   0.01601   0.01151  -0.0149  0.1691  1.0000  -3.1820   0.0000   0.2339
  12.500   1.4032   0.01755   0.01299  -0.0121  0.1566  1.0000  -3.3027   0.0000   0.2307
  13.000   1.4376   0.01885   0.01430  -0.0102  0.1510  1.0000  -3.4349   0.0000   0.2282
  13.500   1.4614   0.02088   0.01628  -0.0075  0.1409  1.0000  -3.5543   0.0000   0.2252
  14.000   1.4921   0.02265   0.01807  -0.0059  0.1357  1.0000  -3.6950   0.0000   0.2229
  14.500   1.5170   0.02486   0.02029  -0.0039  0.1296  1.0000  -3.8262   0.0000   0.2205
  15.000   1.5350   0.02762   0.02303  -0.0017  0.1196  1.0000  -3.9444   0.0000   0.2178
  15.500   1.5591   0.03008   0.02553  -0.0002  0.1161  1.0000  -4.0756   0.0000   0.2157
  16.000   1.5707   0.03362   0.02907   0.0017  0.1097  1.0000  -4.1816   0.0000   0.2133
  16.500   1.5825   0.03731   0.03279   0.0031  0.1027  1.0000  -4.3004   0.0000   0.2111
  17.000   1.5986   0.04078   0.03634   0.0041  0.1006  1.0000  -4.4292   0.0000   0.2092
  17.500   1.6039   0.04516   0.04076   0.0053  0.0964  1.0000  -4.5334   0.0000   0.2071
  18.000   1.6007   0.05047   0.04611   0.0064  0.0906  1.0000  -4.6162   0.0000   0.2050
  18.500   1.6046   0.05532   0.05104   0.0070  0.0867  1.0000  -4.7148   0.0000   0.2033
  19.000   1.6126   0.05979   0.05558   0.0073  0.0845  1.0000  -4.8236   0.0000   0.2018
  19.500   1.6023   0.06612   0.06197   0.0075  0.0806  1.0000  -4.8848   0.0000   0.2001
  20.000   1.5865   0.07311   0.06903   0.0075  0.0757  1.0000  -4.9289   0.0000   0.1986
  20.500   1.5769   0.07974   0.07576   0.0069  0.0724  1.0000  -4.9909   0.0000   0.1974
  21.000   1.5699   0.08620   0.08233   0.0061  0.0715  1.0000  -5.0662   0.0000   0.1964
  21.500   1.5701   0.09181   0.08802   0.0052  0.0694  1.0000  -5.1609   0.0000   0.1956
  22.000   1.5511   0.09955   0.09584   0.0038  0.0667  1.0000  -5.1965   0.0000   0.1949
  22.500   1.5278   0.10805   0.10442   0.0018  0.0631  1.0000  -5.2140   0.0000   0.1945
  23.000   1.5071   0.11647   0.11294  -0.0007  0.0592  1.0000  -5.2335   0.0000   0.1945
  23.500   1.5130   0.12160   0.11816  -0.0025  0.0587  1.0000  -5.3372   0.0000   0.1943
  24.000   1.5002   0.12917   0.12584  -0.0054  0.0578  1.0000  -5.3762   0.0000   0.1946
  24.500   1.4988   0.13520   0.13193  -0.0080  0.0559  1.0000  -5.4516   0.0000   0.1948
  25.000   1.4777   0.14376   0.14056  -0.0119  0.0532  1.0000  -5.4538   0.0000   0.1957


