XFLR5 v6.09.01 beta

 Calculated polar for: NACA 2421

 1 1 Reynolds number fixed          Mach number fixed         

 xtrf =   1.000 (top)        1.000 (bottom)
 Mach =   0.139     Re =     3.000 e 6     Ncrit =   9.000

  alpha     CL        CD       CDp       Cm    Top Xtr Bot Xtr   Cpmin    Chinge    XCp    
 ------- -------- --------- --------- -------- ------- ------- -------- --------- ---------
 -10.000  -0.8691   0.01036   0.00526  -0.0578  0.8344  0.0724  -3.5079   0.0000   0.1625
  -9.500  -0.8176   0.00997   0.00485  -0.0568  0.8150  0.0792  -3.2933   0.0000   0.1600
  -9.000  -0.7656   0.00961   0.00446  -0.0558  0.7949  0.0850  -3.0821   0.0000   0.1568
  -8.500  -0.7111   0.00937   0.00416  -0.0552  0.7742  0.0882  -2.8709   0.0000   0.1523
  -8.000  -0.6582   0.00900   0.00381  -0.0544  0.7542  0.0987  -2.6777   0.0000   0.1475
  -7.500  -0.6029   0.00879   0.00354  -0.0540  0.7332  0.1036  -2.4950   0.0000   0.1407
  -7.000  -0.5491   0.00850   0.00325  -0.0533  0.7102  0.1151  -2.3196   0.0000   0.1331
  -6.500  -0.4936   0.00836   0.00304  -0.0529  0.6843  0.1209  -2.1451   0.0000   0.1229
  -6.000  -0.4385   0.00809   0.00280  -0.0525  0.6665  0.1347  -1.9772   0.0000   0.1102
  -5.500  -0.3827   0.00791   0.00261  -0.0521  0.6444  0.1468  -1.8277   0.0000   0.0931
  -5.000  -0.3266   0.00778   0.00244  -0.0518  0.6213  0.1563  -1.6813   0.0000   0.0698
  -4.500  -0.2713   0.00762   0.00229  -0.0514  0.5972  0.1727  -1.5397   0.0000   0.0378
  -4.000  -0.2149   0.00748   0.00215  -0.0512  0.5786  0.1890  -1.4117   0.0000  -0.0129
  -3.500  -0.1577   0.00739   0.00204  -0.0511  0.5599  0.2017  -1.2877   0.0000  -0.1027
  -3.000  -0.1018   0.00730   0.00195  -0.0508  0.5361  0.2193  -1.1719   0.0000  -0.2854
  -2.500  -0.0449   0.00718   0.00187  -0.0506  0.5221  0.2398  -1.0653   0.0000  -0.9445
  -2.000   0.0118   0.00710   0.00181  -0.0505  0.5039  0.2610  -0.9634   0.0000   4.7126
  -1.500   0.0685   0.00705   0.00177  -0.0503  0.4876  0.2821  -0.8711   0.0000   1.0062
  -1.000   0.1259   0.00697   0.00173  -0.0503  0.4739  0.3054  -0.8130   0.0000   0.6551
  -0.500   0.1827   0.00696   0.00173  -0.0502  0.4589  0.3284  -0.8641   0.0000   0.5243
   0.000   0.2400   0.00689   0.00173  -0.0501  0.4468  0.3564  -0.9171   0.0000   0.4555
   0.500   0.2968   0.00687   0.00174  -0.0500  0.4348  0.3839  -0.9731   0.0000   0.4131
   1.000   0.3533   0.00683   0.00177  -0.0499  0.4210  0.4193  -1.0309   0.0000   0.3843
   1.500   0.4100   0.00676   0.00181  -0.0498  0.4116  0.4614  -1.0923   0.0000   0.3634
   2.000   0.4654   0.00679   0.00189  -0.0494  0.3943  0.5009  -1.1558   0.0000   0.3473
   2.500   0.5224   0.00679   0.00197  -0.0493  0.3853  0.5365  -1.2235   0.0000   0.3348
   3.000   0.5773   0.00690   0.00209  -0.0489  0.3672  0.5719  -1.2947   0.0000   0.3243
   3.500   0.6331   0.00695   0.00221  -0.0486  0.3562  0.6078  -1.3696   0.0000   0.3158
   4.000   0.6875   0.00707   0.00237  -0.0481  0.3398  0.6439  -1.4489   0.0000   0.3083
   4.500   0.7413   0.00723   0.00255  -0.0474  0.3249  0.6778  -1.5331   0.0000   0.3018
   5.000   0.7957   0.00737   0.00274  -0.0469  0.3114  0.7117  -1.6223   0.0000   0.2961
   5.500   0.8466   0.00762   0.00299  -0.0458  0.2915  0.7510  -1.7160   0.0000   0.2906
   6.000   0.8993   0.00778   0.00323  -0.0449  0.2808  0.7898  -1.8181   0.0000   0.2859
   6.500   0.9492   0.00806   0.00352  -0.0436  0.2640  0.8254  -1.9223   0.0000   0.2812
   7.000   0.9929   0.00835   0.00385  -0.0410  0.2486  0.8659  -2.0306   0.0000   0.2759
   7.500   1.0397   0.00865   0.00419  -0.0390  0.2358  0.9004  -2.1467   0.0000   0.2715
   8.000   1.0815   0.00909   0.00467  -0.0362  0.2189  0.9390  -2.2665   0.0000   0.2667
   8.500   1.1212   0.00960   0.00516  -0.0329  0.2056  0.9685  -2.3869   0.0000   0.2618
   9.000   1.1685   0.01010   0.00563  -0.0314  0.1937  0.9874  -2.5306   0.0000   0.2586
   9.500   1.2220   0.01086   0.00629  -0.0316  0.1759  0.9961  -2.6852   0.0000   0.2569
  10.000   1.2762   0.01164   0.00699  -0.0321  0.1632  1.0000  -2.8540   0.0000   0.2555
  10.500   1.3081   0.01224   0.00756  -0.0280  0.1537  1.0000  -2.9960   0.0000   0.2509
  11.000   1.3403   0.01321   0.00846  -0.0245  0.1407  1.0000  -3.1399   0.0000   0.2469
  11.500   1.3772   0.01413   0.00935  -0.0220  0.1315  1.0000  -3.2945   0.0000   0.2437
  12.000   1.4093   0.01532   0.01049  -0.0190  0.1195  1.0000  -3.4579   0.0000   0.2404
  12.500   1.4452   0.01644   0.01161  -0.0168  0.1141  1.0000  -3.6317   0.0000   0.2376
  13.000   1.4729   0.01806   0.01318  -0.0139  0.1036  1.0000  -3.7907   0.0000   0.2344
  13.500   1.5051   0.01951   0.01464  -0.0117  0.0990  1.0000  -3.9614   0.0000   0.2318
  14.000   1.5261   0.02170   0.01679  -0.0088  0.0894  1.0000  -4.1097   0.0000   0.2287
  14.500   1.5557   0.02352   0.01866  -0.0069  0.0854  1.0000  -4.2903   0.0000   0.2263
  15.000   1.5781   0.02593   0.02108  -0.0048  0.0805  1.0000  -4.4624   0.0000   0.2238
  15.500   1.5942   0.02891   0.02406  -0.0026  0.0735  1.0000  -4.6195   0.0000   0.2213
  16.000   1.6163   0.03161   0.02682  -0.0011  0.0713  1.0000  -4.7936   0.0000   0.2192
  16.500   1.6318   0.03498   0.03024   0.0003  0.0682  1.0000  -4.9518   0.0000   0.2171
  17.000   1.6384   0.03925   0.03455   0.0018  0.0638  1.0000  -5.0856   0.0000   0.2149
  17.500   1.6454   0.04363   0.03899   0.0029  0.0591  1.0000  -5.2199   0.0000   0.2130
  18.000   1.6543   0.04793   0.04338   0.0036  0.0579  1.0000  -5.3604   0.0000   0.2113
  18.500   1.6558   0.05311   0.04864   0.0041  0.0556  1.0000  -5.4786   0.0000   0.2096
  19.000   1.6490   0.05925   0.05485   0.0043  0.0528  1.0000  -5.5736   0.0000   0.2081
  19.500   1.6394   0.06582   0.06150   0.0042  0.0491  1.0000  -5.6686   0.0000   0.2067
  20.000   1.6313   0.07228   0.06807   0.0038  0.0471  1.0000  -5.7666   0.0000   0.2055
  20.500   1.6253   0.07873   0.07465   0.0031  0.0466  1.0000  -5.8706   0.0000   0.2045
  21.000   1.6152   0.08577   0.08181   0.0019  0.0457  1.0000  -5.9574   0.0000   0.2038
  21.500   1.6010   0.09335   0.08950   0.0004  0.0444  1.0000  -6.0266   0.0000   0.2032
  22.000   1.5851   0.10100   0.09725  -0.0013  0.0426  1.0000  -6.0863   0.0000   0.2028
  22.500   1.5663   0.10926   0.10559  -0.0036  0.0403  1.0000  -6.1293   0.0000   0.2028
  23.000   1.5442   0.11819   0.11463  -0.0066  0.0378  1.0000  -6.1523   0.0000   0.2031
  23.500   1.5245   0.12697   0.12353  -0.0099  0.0363  1.0000  -6.1781   0.0000   0.2038
  24.000   1.5118   0.13488   0.13158  -0.0134  0.0361  1.0000  -6.2289   0.0000   0.2046
  24.500   1.5111   0.14098   0.13776  -0.0162  0.0357  1.0000  -6.3283   0.0000   0.2049
  25.000   1.4952   0.14936   0.14628  -0.0205  0.0350  1.0000  -6.3548   0.0000   0.2062


