XFLR5 v6.09.01 beta

 Calculated polar for: NACA 2415

 1 1 Reynolds number fixed          Mach number fixed         

 xtrf =   1.000 (top)        1.000 (bottom)
 Mach =   0.139     Re =     3.000 e 6     Ncrit =   9.000

  alpha     CL        CD       CDp       Cm    Top Xtr Bot Xtr   Cpmin    Chinge    XCp    
 ------- -------- --------- --------- -------- ------- ------- -------- --------- ---------
 -10.000  -0.8827   0.01037   0.00561  -0.0568  0.9430  0.0269  -4.9411   0.0000   0.1719
  -9.500  -0.8303   0.00983   0.00501  -0.0558  0.9267  0.0306  -4.5877   0.0000   0.1696
  -9.000  -0.7761   0.00935   0.00453  -0.0551  0.9124  0.0342  -4.2329   0.0000   0.1661
  -8.500  -0.7205   0.00902   0.00415  -0.0547  0.8977  0.0361  -3.8832   0.0000   0.1616
  -8.000  -0.6649   0.00868   0.00376  -0.0542  0.8794  0.0397  -3.5478   0.0000   0.1563
  -7.500  -0.6092   0.00830   0.00338  -0.0539  0.8618  0.0454  -3.2232   0.0000   0.1497
  -7.000  -0.5524   0.00805   0.00307  -0.0537  0.8439  0.0489  -2.9107   0.0000   0.1411
  -6.500  -0.4965   0.00773   0.00275  -0.0534  0.8217  0.0577  -2.6472   0.0000   0.1310
  -6.000  -0.4398   0.00752   0.00249  -0.0531  0.7967  0.0651  -2.3906   0.0000   0.1176
  -5.500  -0.3830   0.00731   0.00225  -0.0530  0.7726  0.0725  -2.1424   0.0000   0.1000
  -5.000  -0.3263   0.00708   0.00201  -0.0528  0.7464  0.0857  -1.9046   0.0000   0.0761
  -4.500  -0.2693   0.00688   0.00181  -0.0527  0.7216  0.1010  -1.6861   0.0000   0.0416
  -4.000  -0.2122   0.00673   0.00164  -0.0526  0.6933  0.1172  -1.4931   0.0000  -0.0116
  -3.500  -0.1550   0.00658   0.00149  -0.0526  0.6665  0.1366  -1.3071   0.0000  -0.1050
  -3.000  -0.0978   0.00646   0.00137  -0.0526  0.6382  0.1593  -1.1386   0.0000  -0.3078
  -2.500  -0.0407   0.00633   0.00127  -0.0525  0.6107  0.1878  -0.9875   0.0000  -1.0793
  -2.000   0.0166   0.00623   0.00119  -0.0526  0.5842  0.2168  -0.8492   0.0000   3.4804
  -1.500   0.0739   0.00614   0.00113  -0.0526  0.5576  0.2515  -0.7247   0.0000   0.9716
  -1.000   0.1312   0.00608   0.00109  -0.0526  0.5325  0.2864  -0.6161   0.0000   0.6536
  -0.500   0.1885   0.00603   0.00108  -0.0527  0.5071  0.3256  -0.6401   0.0000   0.5290
   0.000   0.2459   0.00597   0.00108  -0.0527  0.4875  0.3697  -0.6890   0.0000   0.4624
   0.500   0.3031   0.00584   0.00109  -0.0528  0.4696  0.4334  -0.7410   0.0000   0.4211
   1.000   0.3598   0.00575   0.00114  -0.0527  0.4489  0.5045  -0.7970   0.0000   0.3927
   1.500   0.4168   0.00571   0.00120  -0.0527  0.4319  0.5657  -0.8579   0.0000   0.3721
   2.000   0.4742   0.00567   0.00128  -0.0528  0.4154  0.6242  -0.9245   0.0000   0.3563
   2.500   0.5307   0.00570   0.00138  -0.0527  0.3929  0.6816  -0.9981   0.0000   0.3437
   3.000   0.5866   0.00578   0.00151  -0.0524  0.3676  0.7388  -1.0811   0.0000   0.3334
   3.500   0.6419   0.00589   0.00167  -0.0521  0.3418  0.7955  -1.1752   0.0000   0.3246
   4.000   0.6965   0.00605   0.00187  -0.0515  0.3151  0.8498  -1.2857   0.0000   0.3170
   4.500   0.7500   0.00626   0.00210  -0.0507  0.2881  0.8984  -1.4117   0.0000   0.3101
   5.000   0.8019   0.00654   0.00236  -0.0496  0.2605  0.9375  -1.5525   0.0000   0.3038
   5.500   0.8528   0.00692   0.00265  -0.0482  0.2317  0.9656  -1.7074   0.0000   0.2980
   6.000   0.9077   0.00743   0.00301  -0.0479  0.1965  0.9852  -1.8897   0.0000   0.2937
   6.500   0.9710   0.00794   0.00338  -0.0495  0.1700  0.9943  -2.0967   0.0000   0.2914
   7.000   1.0350   0.00861   0.00385  -0.0515  0.1364  0.9971  -2.3345   0.0000   0.2895
   7.500   1.0982   0.00919   0.00431  -0.0532  0.1149  0.9996  -2.5863   0.0000   0.2876
   8.000   1.1416   0.00971   0.00473  -0.0506  0.0978  1.0000  -2.8036   0.0000   0.2829
   8.500   1.1821   0.01028   0.00520  -0.0474  0.0814  1.0000  -3.0347   0.0000   0.2780
   9.000   1.2269   0.01084   0.00569  -0.0452  0.0698  1.0000  -3.3009   0.0000   0.2741
   9.500   1.2719   0.01147   0.00625  -0.0431  0.0589  1.0000  -3.5760   0.0000   0.2705
  10.000   1.3170   0.01208   0.00683  -0.0412  0.0527  1.0000  -3.8600   0.0000   0.2671
  10.500   1.3608   0.01271   0.00743  -0.0389  0.0463  1.0000  -4.1478   0.0000   0.2637
  11.000   1.3982   0.01343   0.00812  -0.0356  0.0412  1.0000  -4.4253   0.0000   0.2598
  11.500   1.4353   0.01420   0.00889  -0.0324  0.0360  1.0000  -4.7141   0.0000   0.2560
  12.000   1.4729   0.01499   0.00970  -0.0295  0.0338  1.0000  -5.0460   0.0000   0.2526
  12.500   1.5055   0.01608   0.01077  -0.0260  0.0298  1.0000  -5.3668   0.0000   0.2491
  13.000   1.5388   0.01719   0.01192  -0.0229  0.0268  1.0000  -5.6967   0.0000   0.2458
  13.500   1.5732   0.01830   0.01308  -0.0203  0.0262  1.0000  -6.0417   0.0000   0.2428
  14.000   1.6030   0.01972   0.01454  -0.0173  0.0246  1.0000  -6.3756   0.0000   0.2398
  14.500   1.6276   0.02160   0.01644  -0.0142  0.0225  1.0000  -6.6925   0.0000   0.2367
  15.000   1.6481   0.02386   0.01876  -0.0112  0.0200  1.0000  -6.9924   0.0000   0.2337
  15.500   1.6688   0.02632   0.02131  -0.0087  0.0188  1.0000  -7.2980   0.0000   0.2310
  16.000   1.6914   0.02880   0.02388  -0.0067  0.0186  1.0000  -7.6232   0.0000   0.2287
  16.500   1.7099   0.03170   0.02686  -0.0050  0.0183  1.0000  -7.9330   0.0000   0.2265
  17.000   1.7241   0.03517   0.03042  -0.0035  0.0176  1.0000  -8.2246   0.0000   0.2244
  17.500   1.7315   0.03957   0.03491  -0.0024  0.0167  1.0000  -8.4815   0.0000   0.2226
  18.000   1.7324   0.04487   0.04032  -0.0018  0.0158  1.0000  -8.7020   0.0000   0.2210
  18.500   1.7282   0.05083   0.04639  -0.0016  0.0148  1.0000  -8.8913   0.0000   0.2196
  19.000   1.7164   0.05811   0.05383  -0.0023  0.0139  1.0000  -9.0298   0.0000   0.2186
  19.500   1.7021   0.06586   0.06173  -0.0034  0.0132  1.0000  -9.1476   0.0000   0.2179
  20.000   1.6775   0.07507   0.07113  -0.0053  0.0127  1.0000  -9.2045   0.0000   0.2177
  20.500   1.6508   0.08487   0.08113  -0.0078  0.0123  1.0000  -9.2568   0.0000   0.2178
  21.000   1.6250   0.09479   0.09124  -0.0108  0.0121  1.0000  -9.3067   0.0000   0.2184
  21.500   1.5958   0.10533   0.10195  -0.0145  0.0121  1.0000  -9.3242   0.0000   0.2194
  22.000   1.5684   0.11588   0.11267  -0.0186  0.0121  1.0000  -9.3398   0.0000   0.2207
  22.500   1.5426   0.12647   0.12342  -0.0233  0.0121  1.0000  -9.3524   0.0000   0.2225
  23.000   1.5169   0.13724   0.13435  -0.0285  0.0120  1.0000  -9.3487   0.0000   0.2248
  23.500   1.4910   0.14810   0.14536  -0.0342  0.0120  1.0000  -9.3255   0.0000   0.2275
  24.000   1.4661   0.15909   0.15650  -0.0404  0.0119  1.0000  -9.2894   0.0000   0.2306
  24.500   1.4427   0.17027   0.16783  -0.0473  0.0118  1.0000  -9.2418   0.0000   0.2343
  25.000   1.4204   0.18163   0.17932  -0.0546  0.0117  1.0000  -9.1791   0.0000   0.2385


