XFLR5 v6.09.01 beta

 Calculated polar for: NACA 0015

 1 1 Reynolds number fixed          Mach number fixed         

 xtrf =   1.000 (top)        1.000 (bottom)
 Mach =   0.139     Re =     3.000 e 6     Ncrit =   9.000

  alpha     CL        CD       CDp       Cm    Top Xtr Bot Xtr   Cpmin    Chinge    XCp    
 ------- -------- --------- --------- -------- ------- ------- -------- --------- ---------
 -10.000  -1.1183   0.01114   0.00613  -0.0047  0.9948  0.0360  -4.4190   0.0000   0.2325
  -9.500  -1.0532   0.01057   0.00558  -0.0067  0.9932  0.0407  -4.0509   0.0000   0.2309
  -9.000  -0.9953   0.01000   0.00505  -0.0070  0.9871  0.0460  -3.7145   0.0000   0.2308
  -8.500  -0.9364   0.00955   0.00462  -0.0075  0.9794  0.0514  -3.3871   0.0000   0.2304
  -8.000  -0.8855   0.00909   0.00419  -0.0062  0.9660  0.0583  -3.0923   0.0000   0.2319
  -7.500  -0.8338   0.00864   0.00379  -0.0051  0.9507  0.0689  -2.8249   0.0000   0.2333
  -7.000  -0.7806   0.00828   0.00343  -0.0042  0.9331  0.0788  -2.5777   0.0000   0.2345
  -6.500  -0.7268   0.00793   0.00310  -0.0035  0.9122  0.0899  -2.3375   0.0000   0.2356
  -6.000  -0.6726   0.00759   0.00278  -0.0028  0.8878  0.1050  -2.1050   0.0000   0.2366
  -5.500  -0.6185   0.00724   0.00246  -0.0022  0.8598  0.1275  -1.8926   0.0000   0.2377
  -5.000  -0.5637   0.00697   0.00219  -0.0017  0.8279  0.1487  -1.7013   0.0000   0.2386
  -4.500  -0.5085   0.00669   0.00195  -0.0013  0.7954  0.1748  -1.5156   0.0000   0.2394
  -4.000  -0.4526   0.00648   0.00175  -0.0010  0.7615  0.1998  -1.3530   0.0000   0.2399
  -3.500  -0.3973   0.00624   0.00155  -0.0006  0.7243  0.2352  -1.2002   0.0000   0.2408
  -3.000  -0.3411   0.00610   0.00140  -0.0004  0.6846  0.2641  -1.0672   0.0000   0.2414
  -2.500  -0.2845   0.00596   0.00128  -0.0003  0.6500  0.2964  -0.9464   0.0000   0.2417
  -2.000  -0.2280   0.00581   0.00117  -0.0002  0.6143  0.3327  -0.8398   0.0000   0.2422
  -1.500  -0.1712   0.00574   0.00109  -0.0001  0.5773  0.3657  -0.7458   0.0000   0.2425
  -1.000  -0.1142   0.00570   0.00104  -0.0000  0.5388  0.3992  -0.6630   0.0000   0.2428
  -0.500  -0.0572   0.00563   0.00101  -0.0000  0.5052  0.4364  -0.5898   0.0000   0.2431
   0.000  -0.0000   0.00561   0.00100  -0.0000  0.4716  0.4716  -0.5248   0.0000   0.0521
   0.500   0.0572   0.00563   0.00101   0.0000  0.4364  0.5052  -0.5898   0.0000   0.2431
   1.000   0.1142   0.00570   0.00104   0.0000  0.3992  0.5388  -0.6630   0.0000   0.2428
   1.500   0.1712   0.00574   0.00109   0.0001  0.3657  0.5773  -0.7458   0.0000   0.2426
   2.000   0.2280   0.00581   0.00117   0.0002  0.3327  0.6143  -0.8398   0.0000   0.2422
   2.500   0.2845   0.00596   0.00128   0.0003  0.2964  0.6500  -0.9465   0.0000   0.2417
   3.000   0.3411   0.00610   0.00140   0.0004  0.2641  0.6846  -1.0673   0.0000   0.2414
   3.500   0.3973   0.00624   0.00155   0.0006  0.2351  0.7243  -1.2002   0.0000   0.2408
   4.000   0.4526   0.00648   0.00175   0.0010  0.1997  0.7615  -1.3531   0.0000   0.2400
   4.500   0.5086   0.00669   0.00195   0.0012  0.1748  0.7954  -1.5157   0.0000   0.2394
   5.000   0.5638   0.00697   0.00219   0.0017  0.1487  0.8279  -1.7013   0.0000   0.2386
   5.500   0.6186   0.00724   0.00246   0.0022  0.1275  0.8598  -1.8927   0.0000   0.2377
   6.000   0.6727   0.00759   0.00278   0.0028  0.1050  0.8878  -2.1052   0.0000   0.2366
   6.500   0.7269   0.00793   0.00310   0.0035  0.0899  0.9122  -2.3377   0.0000   0.2356
   7.000   0.7807   0.00828   0.00343   0.0042  0.0787  0.9330  -2.5779   0.0000   0.2345
   7.500   0.8339   0.00864   0.00379   0.0051  0.0688  0.9507  -2.8252   0.0000   0.2334
   8.000   0.8857   0.00909   0.00419   0.0062  0.0583  0.9660  -3.0927   0.0000   0.2319
   8.500   0.9366   0.00955   0.00462   0.0075  0.0514  0.9794  -3.3876   0.0000   0.2304
   9.000   0.9955   0.01000   0.00505   0.0070  0.0460  0.9871  -3.7150   0.0000   0.2308
   9.500   1.0534   0.01057   0.00558   0.0066  0.0406  0.9932  -4.0515   0.0000   0.2310
  10.000   1.1185   0.01114   0.00613   0.0046  0.0360  0.9949  -4.4197   0.0000   0.2325
  10.500   1.1823   0.01171   0.00668   0.0029  0.0335  0.9969  -4.7986   0.0000   0.2335
  11.000   1.2429   0.01250   0.00743   0.0017  0.0281  0.9991  -5.1750   0.0000   0.2339
  11.500   1.2937   0.01307   0.00802   0.0026  0.0267  1.0000  -5.5515   0.0000   0.2325
  12.000   1.3283   0.01356   0.00854   0.0069  0.0260  1.0000  -5.9080   0.0000   0.2286
  12.500   1.3654   0.01420   0.00919   0.0105  0.0244  1.0000  -6.2826   0.0000   0.2254
  13.000   1.4030   0.01504   0.01003   0.0136  0.0223  1.0000  -6.6658   0.0000   0.2225
  13.500   1.4346   0.01599   0.01101   0.0178  0.0199  1.0000  -7.0281   0.0000   0.2190
  14.000   1.4658   0.01703   0.01213   0.0216  0.0188  1.0000  -7.3962   0.0000   0.2157
  14.500   1.5006   0.01799   0.01315   0.0245  0.0187  1.0000  -7.7975   0.0000   0.2132
  15.000   1.5333   0.01914   0.01436   0.0274  0.0184  1.0000  -8.1968   0.0000   0.2108
  15.500   1.5636   0.02054   0.01582   0.0301  0.0179  1.0000  -8.5897   0.0000   0.2084
  16.000   1.5896   0.02232   0.01767   0.0327  0.0172  1.0000  -8.9654   0.0000   0.2060
  16.500   1.6103   0.02467   0.02009   0.0351  0.0163  1.0000  -9.3153   0.0000   0.2037
  17.000   1.6253   0.02768   0.02318   0.0371  0.0154  1.0000  -9.6339   0.0000   0.2016
  17.500   1.6353   0.03149   0.02710   0.0383  0.0144  1.0000  -9.9193   0.0000   0.1998
  18.000   1.6380   0.03629   0.03206   0.0387  0.0137  1.0000  -10.1560   0.0000   0.1983
  18.500   1.6322   0.04243   0.03838   0.0380  0.0132  1.0000  -10.3346   0.0000   0.1973
  19.000   1.6152   0.05037   0.04652   0.0360  0.0127  1.0000  -10.4315   0.0000   0.1969
  19.500   1.5859   0.06019   0.05657   0.0327  0.0124  1.0000  -10.4335   0.0000   0.1971
  20.000   1.5455   0.07203   0.06865   0.0280  0.0122  1.0000  -10.3412   0.0000   0.1981
  20.500   1.4926   0.08595   0.08283   0.0220  0.0121  1.0000  -10.1399   0.0000   0.2001
  21.000   1.4384   0.10072   0.09783   0.0151  0.0121  1.0000  -9.8997   0.0000   0.2029
  21.500   1.3773   0.11682   0.11416   0.0070  0.0121  1.0000  -9.5698   0.0000   0.2068
  22.000   1.3176   0.13355   0.13112  -0.0019  0.0121  1.0000  -9.2026   0.0000   0.2120
  22.500   1.2752   0.14806   0.14580  -0.0103  0.0121  1.0000  -8.9408   0.0000   0.2173
  23.000   1.2391   0.16176   0.15966  -0.0185  0.0121  1.0000  -8.6978   0.0000   0.2229
  23.500   1.2013   0.17660   0.17466  -0.0279  0.0121  1.0000  -8.3871   0.0000   0.2299
  24.000   1.1899   0.18676   0.18491  -0.0346  0.0120  1.0000  -8.3244   0.0000   0.2345
  24.500   1.1723   0.19860   0.19686  -0.0426  0.0120  1.0000  -8.1595   0.0000   0.2405
  25.000   1.1547   0.21091   0.20927  -0.0511  0.0118  1.0000  -7.9608   0.0000   0.2472


