XFLR5 v6.09.01 beta

 Calculated polar for: NACA 0021

 1 1 Reynolds number fixed          Mach number fixed         

 xtrf =   1.000 (top)        1.000 (bottom)
 Mach =   0.139     Re =     3.000 e 6     Ncrit =   9.000

  alpha     CL        CD       CDp       Cm    Top Xtr Bot Xtr   Cpmin    Chinge    XCp    
 ------- -------- --------- --------- -------- ------- ------- -------- --------- ---------
 -10.000  -1.0590   0.01083   0.00593  -0.0163  0.9225  0.1041  -3.1132   0.0000   0.2150
  -9.500  -1.0183   0.01024   0.00536  -0.0134  0.8998  0.1160  -2.9461   0.0000   0.2179
  -9.000  -0.9742   0.00991   0.00497  -0.0109  0.8760  0.1229  -2.7807   0.0000   0.2205
  -8.500  -0.9276   0.00947   0.00454  -0.0090  0.8510  0.1345  -2.6148   0.0000   0.2226
  -8.000  -0.8768   0.00917   0.00420  -0.0079  0.8254  0.1438  -2.4453   0.0000   0.2239
  -7.500  -0.8265   0.00882   0.00383  -0.0066  0.7994  0.1560  -2.2901   0.0000   0.2253
  -7.000  -0.7755   0.00849   0.00351  -0.0055  0.7715  0.1712  -2.1431   0.0000   0.2268
  -6.500  -0.7218   0.00827   0.00325  -0.0048  0.7449  0.1823  -1.9952   0.0000   0.2276
  -6.000  -0.6691   0.00801   0.00299  -0.0039  0.7172  0.1972  -1.8605   0.0000   0.2287
  -5.500  -0.6158   0.00775   0.00274  -0.0032  0.6904  0.2151  -1.7326   0.0000   0.2298
  -5.000  -0.5611   0.00756   0.00254  -0.0027  0.6645  0.2312  -1.6090   0.0000   0.2306
  -4.500  -0.5058   0.00741   0.00237  -0.0023  0.6375  0.2462  -1.4950   0.0000   0.2312
  -4.000  -0.4508   0.00722   0.00221  -0.0018  0.6128  0.2644  -1.3869   0.0000   0.2319
  -3.500  -0.3956   0.00707   0.00206  -0.0014  0.5866  0.2849  -1.2870   0.0000   0.2327
  -3.000  -0.3395   0.00697   0.00194  -0.0011  0.5616  0.3032  -1.1929   0.0000   0.2331
  -2.500  -0.2831   0.00690   0.00185  -0.0009  0.5354  0.3194  -1.1034   0.0000   0.2334
  -2.000  -0.2272   0.00682   0.00177  -0.0006  0.5102  0.3402  -1.0230   0.0000   0.2341
  -1.500  -0.1705   0.00673   0.00170  -0.0004  0.4908  0.3617  -0.9460   0.0000   0.2344
  -1.000  -0.1137   0.00667   0.00166  -0.0003  0.4680  0.3832  -0.8737   0.0000   0.2345
  -0.500  -0.0564   0.00667   0.00164  -0.0002  0.4461  0.4009  -0.8070   0.0000   0.2331
   0.000   0.0000   0.00668   0.00163  -0.0000  0.4216  0.4216  -0.7441   0.0000   1.0751
   0.500   0.0564   0.00667   0.00164   0.0002  0.4009  0.4461  -0.8070   0.0000   0.2332
   1.000   0.1137   0.00667   0.00166   0.0003  0.3832  0.4680  -0.8738   0.0000   0.2345
   1.500   0.1705   0.00673   0.00170   0.0004  0.3617  0.4908  -0.9460   0.0000   0.2344
   2.000   0.2272   0.00682   0.00177   0.0006  0.3402  0.5102  -1.0230   0.0000   0.2341
   2.500   0.2831   0.00690   0.00185   0.0009  0.3194  0.5354  -1.1034   0.0000   0.2334
   3.000   0.3396   0.00697   0.00194   0.0011  0.3032  0.5616  -1.1929   0.0000   0.2331
   3.500   0.3957   0.00707   0.00206   0.0014  0.2849  0.5866  -1.2870   0.0000   0.2327
   4.000   0.4508   0.00722   0.00221   0.0018  0.2644  0.6129  -1.3870   0.0000   0.2319
   4.500   0.5059   0.00741   0.00237   0.0022  0.2462  0.6375  -1.4951   0.0000   0.2312
   5.000   0.5612   0.00756   0.00254   0.0027  0.2312  0.6645  -1.6092   0.0000   0.2306
   5.500   0.6159   0.00775   0.00274   0.0032  0.2151  0.6904  -1.7327   0.0000   0.2299
   6.000   0.6692   0.00801   0.00299   0.0039  0.1972  0.7172  -1.8607   0.0000   0.2288
   6.500   0.7220   0.00827   0.00325   0.0047  0.1822  0.7450  -1.9954   0.0000   0.2277
   7.000   0.7758   0.00849   0.00351   0.0054  0.1712  0.7716  -2.1434   0.0000   0.2268
   7.500   0.8269   0.00882   0.00383   0.0065  0.1560  0.7993  -2.2905   0.0000   0.2254
   8.000   0.8771   0.00918   0.00420   0.0078  0.1437  0.8253  -2.4459   0.0000   0.2239
   8.500   0.9281   0.00947   0.00454   0.0089  0.1345  0.8510  -2.6155   0.0000   0.2227
   9.000   0.9749   0.00991   0.00497   0.0108  0.1228  0.8760  -2.7817   0.0000   0.2206
   9.500   1.0191   0.01024   0.00536   0.0132  0.1159  0.8997  -2.9474   0.0000   0.2181
  10.000   1.0599   0.01083   0.00593   0.0161  0.1040  0.9224  -3.1148   0.0000   0.2152
  10.500   1.1042   0.01128   0.00643   0.0183  0.0998  0.9431  -3.3054   0.0000   0.2131
  11.000   1.1416   0.01195   0.00710   0.0216  0.0924  0.9631  -3.4860   0.0000   0.2100
  11.500   1.1805   0.01258   0.00775   0.0246  0.0864  0.9811  -3.6727   0.0000   0.2074
  12.000   1.2275   0.01332   0.00849   0.0256  0.0822  0.9931  -3.8789   0.0000   0.2066
  12.500   1.2801   0.01444   0.00955   0.0248  0.0729  0.9967  -4.0990   0.0000   0.2074
  13.000   1.3359   0.01534   0.01046   0.0236  0.0707  0.9996  -4.3408   0.0000   0.2084
  13.500   1.3587   0.01635   0.01147   0.0283  0.0673  1.0000  -4.5245   0.0000   0.2043
  14.000   1.3843   0.01774   0.01285   0.0318  0.0620  1.0000  -4.7153   0.0000   0.2012
  14.500   1.4164   0.01909   0.01423   0.0340  0.0590  1.0000  -4.9251   0.0000   0.1992
  15.000   1.4488   0.02056   0.01574   0.0359  0.0578  1.0000  -5.1393   0.0000   0.1975
  15.500   1.4758   0.02245   0.01766   0.0378  0.0554  1.0000  -5.3408   0.0000   0.1955
  16.000   1.4964   0.02493   0.02016   0.0398  0.0521  1.0000  -5.5252   0.0000   0.1935
  16.500   1.5143   0.02784   0.02311   0.0413  0.0481  1.0000  -5.7007   0.0000   0.1916
  17.000   1.5360   0.03060   0.02594   0.0424  0.0469  1.0000  -5.8903   0.0000   0.1902
  17.500   1.5552   0.03369   0.02911   0.0431  0.0461  1.0000  -6.0740   0.0000   0.1888
  18.000   1.5685   0.03749   0.03298   0.0436  0.0449  1.0000  -6.2382   0.0000   0.1875
  18.500   1.5747   0.04208   0.03766   0.0438  0.0432  1.0000  -6.3856   0.0000   0.1862
  19.000   1.5733   0.04749   0.04314   0.0437  0.0412  1.0000  -6.5160   0.0000   0.1848
  19.500   1.5653   0.05382   0.04957   0.0431  0.0390  1.0000  -6.6186   0.0000   0.1836
  20.000   1.5517   0.06103   0.05691   0.0418  0.0370  1.0000  -6.6952   0.0000   0.1826
  20.500   1.5418   0.06799   0.06400   0.0403  0.0363  1.0000  -6.7832   0.0000   0.1820
  21.000   1.5309   0.07503   0.07118   0.0385  0.0362  1.0000  -6.8654   0.0000   0.1814
  21.500   1.5167   0.08271   0.07900   0.0363  0.0359  1.0000  -6.9290   0.0000   0.1811
  22.000   1.4988   0.09101   0.08744   0.0335  0.0355  1.0000  -6.9715   0.0000   0.1811
  22.500   1.4762   0.09996   0.09653   0.0302  0.0350  1.0000  -6.9877   0.0000   0.1814
  23.000   1.4495   0.10944   0.10615   0.0264  0.0343  1.0000  -6.9773   0.0000   0.1820
  23.500   1.4206   0.11958   0.11643   0.0219  0.0334  1.0000  -6.9463   0.0000   0.1831
  24.000   1.3892   0.13030   0.12727   0.0166  0.0324  1.0000  -6.8911   0.0000   0.1849
  24.500   1.3567   0.14141   0.13851   0.0106  0.0312  1.0000  -6.8160   0.0000   0.1872
  25.000   1.3246   0.15251   0.14974   0.0042  0.0297  1.0000  -6.7268   0.0000   0.1901


