XFLR5 v6.09.01 beta

 Calculated polar for: NACA 0028

 1 1 Reynolds number fixed          Mach number fixed         

 xtrf =   1.000 (top)        1.000 (bottom)
 Mach =   0.139     Re =     3.000 e 6     Ncrit =   9.000

  alpha     CL        CD       CDp       Cm    Top Xtr Bot Xtr   Cpmin    Chinge    XCp    
 ------- -------- --------- --------- -------- ------- ------- -------- --------- ---------
 -10.000  -0.9539   0.01249   0.00756  -0.0306  0.7664  0.1864  -2.7092   0.0000   0.1867
  -9.500  -0.9112   0.01184   0.00687  -0.0290  0.7406  0.1944  -2.5964   0.0000   0.1875
  -9.000  -0.8642   0.01140   0.00634  -0.0279  0.7144  0.1978  -2.4795   0.0000   0.1876
  -8.500  -0.8207   0.01083   0.00577  -0.0263  0.6942  0.2101  -2.3776   0.0000   0.1885
  -8.000  -0.7754   0.01038   0.00528  -0.0247  0.6718  0.2181  -2.2743   0.0000   0.1891
  -7.500  -0.7265   0.01005   0.00490  -0.0237  0.6492  0.2266  -2.1684   0.0000   0.1888
  -7.000  -0.6819   0.00965   0.00448  -0.0218  0.6248  0.2371  -2.0729   0.0000   0.1899
  -6.500  -0.6311   0.00942   0.00420  -0.0209  0.6063  0.2427  -1.9755   0.0000   0.1890
  -6.000  -0.5853   0.00906   0.00386  -0.0192  0.5889  0.2572  -1.8844   0.0000   0.1899
  -5.500  -0.5357   0.00887   0.00362  -0.0179  0.5653  0.2646  -1.7938   0.0000   0.1894
  -5.000  -0.4867   0.00864   0.00338  -0.0166  0.5506  0.2764  -1.7088   0.0000   0.1891
  -4.500  -0.4399   0.00843   0.00317  -0.0147  0.5327  0.2875  -1.6266   0.0000   0.1901
  -4.000  -0.3930   0.00838   0.00305  -0.0127  0.5122  0.2949  -1.5488   0.0000   0.1915
  -3.500  -0.3532   0.00822   0.00294  -0.0093  0.5007  0.3094  -1.4802   0.0000   0.1982
  -3.000  -0.3044   0.00822   0.00287  -0.0077  0.4789  0.3164  -1.4050   0.0000   0.1997
  -2.500  -0.2554   0.00807   0.00277  -0.0061  0.4685  0.3319  -1.3349   0.0000   0.2014
  -2.000  -0.2047   0.00807   0.00272  -0.0048  0.4498  0.3409  -1.2655   0.0000   0.2020
  -1.500  -0.1545   0.00798   0.00266  -0.0034  0.4374  0.3570  -1.1979   0.0000   0.2035
  -1.000  -0.1028   0.00798   0.00263  -0.0023  0.4214  0.3665  -1.1343   0.0000   0.2031
  -0.500  -0.0518   0.00793   0.00260  -0.0011  0.4093  0.3829  -1.0720   0.0000   0.2049
   0.000  -0.0000   0.00795   0.00260   0.0000  0.3934  0.3934  -1.0122   0.0000   0.4513
   0.500   0.0518   0.00793   0.00260   0.0011  0.3829  0.4093  -1.0720   0.0000   0.2049
   1.000   0.1028   0.00798   0.00263   0.0023  0.3665  0.4214  -1.1343   0.0000   0.2031
   1.500   0.1546   0.00798   0.00266   0.0034  0.3570  0.4374  -1.1979   0.0000   0.2036
   2.000   0.2048   0.00807   0.00272   0.0048  0.3409  0.4498  -1.2655   0.0000   0.2020
   2.500   0.2554   0.00807   0.00277   0.0061  0.3319  0.4685  -1.3349   0.0000   0.2015
   3.000   0.3045   0.00822   0.00287   0.0076  0.3164  0.4789  -1.4050   0.0000   0.1998
   3.500   0.3534   0.00822   0.00294   0.0093  0.3094  0.5007  -1.4804   0.0000   0.1984
   4.000   0.3934   0.00838   0.00305   0.0127  0.2948  0.5122  -1.5490   0.0000   0.1917
   4.500   0.4402   0.00842   0.00317   0.0147  0.2875  0.5327  -1.6269   0.0000   0.1903
   5.000   0.4870   0.00864   0.00338   0.0165  0.2764  0.5506  -1.7091   0.0000   0.1893
   5.500   0.5361   0.00887   0.00361   0.0179  0.2645  0.5653  -1.7942   0.0000   0.1896
   6.000   0.5858   0.00905   0.00386   0.0191  0.2572  0.5889  -1.8849   0.0000   0.1901
   6.500   0.6317   0.00942   0.00420   0.0208  0.2426  0.6064  -1.9761   0.0000   0.1892
   7.000   0.6825   0.00965   0.00448   0.0217  0.2370  0.6248  -2.0736   0.0000   0.1901
   7.500   0.7273   0.01004   0.00489   0.0235  0.2265  0.6492  -2.1692   0.0000   0.1891
   8.000   0.7762   0.01037   0.00528   0.0246  0.2181  0.6718  -2.2753   0.0000   0.1894
   8.500   0.8217   0.01082   0.00576   0.0261  0.2100  0.6941  -2.3787   0.0000   0.1888
   9.000   0.8653   0.01140   0.00633   0.0277  0.1977  0.7145  -2.4808   0.0000   0.1879
   9.500   0.9125   0.01183   0.00686   0.0288  0.1944  0.7406  -2.5980   0.0000   0.1879
  10.000   0.9554   0.01249   0.00755   0.0303  0.1863  0.7664  -2.7109   0.0000   0.1870
  10.500   0.9954   0.01326   0.00838   0.0321  0.1761  0.7935  -2.8212   0.0000   0.1858
  11.000   1.0399   0.01391   0.00912   0.0332  0.1720  0.8190  -2.9388   0.0000   0.1854
  11.500   1.0761   0.01496   0.01021   0.0352  0.1643  0.8462  -3.0558   0.0000   0.1839
  12.000   1.1134   0.01603   0.01134   0.0369  0.1563  0.8719  -3.1755   0.0000   0.1826
  12.500   1.1541   0.01696   0.01238   0.0381  0.1531  0.8974  -3.3021   0.0000   0.1820
  13.000   1.1828   0.01852   0.01398   0.0404  0.1457  0.9220  -3.4109   0.0000   0.1798
  13.500   1.2103   0.02018   0.01570   0.0428  0.1375  0.9461  -3.5181   0.0000   0.1776
  14.000   1.2425   0.02154   0.01714   0.0448  0.1358  0.9678  -3.6445   0.0000   0.1759
  14.500   1.2697   0.02340   0.01904   0.0468  0.1318  0.9857  -3.7640   0.0000   0.1741
  15.000   1.2986   0.02600   0.02163   0.0468  0.1253  0.9951  -3.8840   0.0000   0.1738
  15.500   1.3360   0.02860   0.02425   0.0453  0.1193  0.9984  -4.0182   0.0000   0.1750
  16.000   1.3674   0.03091   0.02660   0.0452  0.1170  1.0000  -4.1453   0.0000   0.1748
  16.500   1.3792   0.03383   0.02954   0.0474  0.1130  1.0000  -4.2376   0.0000   0.1722
  17.000   1.3867   0.03762   0.03334   0.0488  0.1078  1.0000  -4.3217   0.0000   0.1700
  17.500   1.3966   0.04149   0.03726   0.0495  0.1027  1.0000  -4.4171   0.0000   0.1683
  18.000   1.4111   0.04507   0.04092   0.0499  0.1018  1.0000  -4.5227   0.0000   0.1671
  18.500   1.4203   0.04920   0.04513   0.0501  0.1000  1.0000  -4.6156   0.0000   0.1658
  19.000   1.4210   0.05420   0.05018   0.0502  0.0969  1.0000  -4.6885   0.0000   0.1642
  19.500   1.4128   0.06015   0.05618   0.0501  0.0929  1.0000  -4.7380   0.0000   0.1624
  20.000   1.4050   0.06614   0.06223   0.0497  0.0878  1.0000  -4.7856   0.0000   0.1609
  20.500   1.4087   0.07108   0.06726   0.0490  0.0866  1.0000  -4.8597   0.0000   0.1600
  21.000   1.4037   0.07709   0.07337   0.0480  0.0853  1.0000  -4.9102   0.0000   0.1590
  21.500   1.3923   0.08387   0.08025   0.0466  0.0833  1.0000  -4.9413   0.0000   0.1580
  22.000   1.3731   0.09155   0.08801   0.0448  0.0805  1.0000  -4.9523   0.0000   0.1570
  22.500   1.3599   0.09850   0.09501   0.0429  0.0766  1.0000  -4.9827   0.0000   0.1563
  23.000   1.3367   0.10683   0.10344   0.0403  0.0727  1.0000  -4.9797   0.0000   0.1557
  23.500   1.3260   0.11396   0.11068   0.0376  0.0722  1.0000  -5.0093   0.0000   0.1558
  24.000   1.3328   0.11903   0.11583   0.0354  0.0715  1.0000  -5.0887   0.0000   0.1562
  24.500   1.3189   0.12663   0.12353   0.0320  0.0701  1.0000  -5.1020   0.0000   0.1566
  25.000   1.2976   0.13520   0.13219   0.0280  0.0679  1.0000  -5.0864   0.0000   0.1574


