XFLR5 v6.09.01 beta

 Calculated polar for: NACA 0024

 1 1 Reynolds number fixed          Mach number fixed         

 xtrf =   1.000 (top)        1.000 (bottom)
 Mach =   0.139     Re =     3.000 e 6     Ncrit =   9.000

  alpha     CL        CD       CDp       Cm    Top Xtr Bot Xtr   Cpmin    Chinge    XCp    
 ------- -------- --------- --------- -------- ------- ------- -------- --------- ---------
 -10.000  -1.0212   0.01119   0.00632  -0.0220  0.8595  0.1450  -2.8722   0.0000   0.2046
  -9.500  -0.9786   0.01062   0.00573  -0.0198  0.8333  0.1537  -2.7309   0.0000   0.2065
  -9.000  -0.9309   0.01025   0.00529  -0.0184  0.8076  0.1598  -2.5841   0.0000   0.2076
  -8.500  -0.8872   0.00974   0.00478  -0.0163  0.7815  0.1728  -2.4568   0.0000   0.2096
  -8.000  -0.8385   0.00943   0.00441  -0.0149  0.7553  0.1811  -2.3257   0.0000   0.2108
  -7.500  -0.7927   0.00903   0.00401  -0.0129  0.7300  0.1934  -2.2007   0.0000   0.2127
  -7.000  -0.7457   0.00883   0.00375  -0.0110  0.7041  0.2018  -2.0820   0.0000   0.2148
  -6.500  -0.7018   0.00855   0.00348  -0.0085  0.6791  0.2165  -1.9734   0.0000   0.2180
  -6.000  -0.6502   0.00839   0.00326  -0.0074  0.6527  0.2268  -1.8577   0.0000   0.2191
  -5.500  -0.5996   0.00817   0.00304  -0.0062  0.6289  0.2402  -1.7527   0.0000   0.2206
  -5.000  -0.5473   0.00797   0.00284  -0.0053  0.6078  0.2549  -1.6494   0.0000   0.2217
  -4.500  -0.4934   0.00784   0.00269  -0.0046  0.5867  0.2651  -1.5497   0.0000   0.2222
  -4.000  -0.4410   0.00766   0.00253  -0.0037  0.5631  0.2835  -1.4578   0.0000   0.2236
  -3.500  -0.3859   0.00761   0.00242  -0.0032  0.5401  0.2933  -1.3667   0.0000   0.2238
  -3.000  -0.3321   0.00745   0.00230  -0.0025  0.5225  0.3122  -1.2835   0.0000   0.2248
  -2.500  -0.2768   0.00738   0.00221  -0.0021  0.5027  0.3268  -1.2017   0.0000   0.2249
  -2.000  -0.2221   0.00734   0.00215  -0.0016  0.4789  0.3406  -1.1264   0.0000   0.2257
  -1.500  -0.1669   0.00724   0.00208  -0.0011  0.4642  0.3597  -1.0534   0.0000   0.2262
  -1.000  -0.1106   0.00723   0.00204  -0.0009  0.4456  0.3736  -0.9845   0.0000   0.2250
  -0.500  -0.0562   0.00721   0.00202  -0.0003  0.4235  0.3919  -0.9195   0.0000   0.2282
   0.000   0.0000   0.00717   0.00201  -0.0000  0.4101  0.4101  -0.8575   0.0000   0.4537
   0.500   0.0562   0.00721   0.00202   0.0003  0.3919  0.4235  -0.9195   0.0000   0.2282
   1.000   0.1106   0.00723   0.00204   0.0009  0.3735  0.4456  -0.9845   0.0000   0.2250
   1.500   0.1669   0.00724   0.00208   0.0011  0.3597  0.4642  -1.0534   0.0000   0.2262
   2.000   0.2221   0.00734   0.00215   0.0015  0.3406  0.4789  -1.1265   0.0000   0.2257
   2.500   0.2768   0.00737   0.00221   0.0021  0.3268  0.5027  -1.2018   0.0000   0.2250
   3.000   0.3322   0.00745   0.00230   0.0025  0.3121  0.5225  -1.2836   0.0000   0.2248
   3.500   0.3860   0.00761   0.00242   0.0032  0.2932  0.5401  -1.3668   0.0000   0.2238
   4.000   0.4411   0.00766   0.00253   0.0036  0.2835  0.5631  -1.4579   0.0000   0.2236
   4.500   0.4935   0.00784   0.00269   0.0046  0.2652  0.5867  -1.5498   0.0000   0.2223
   5.000   0.5474   0.00797   0.00284   0.0052  0.2549  0.6079  -1.6496   0.0000   0.2217
   5.500   0.5998   0.00817   0.00304   0.0061  0.2402  0.6289  -1.7529   0.0000   0.2207
   6.000   0.6505   0.00839   0.00326   0.0074  0.2267  0.6527  -1.8580   0.0000   0.2192
   6.500   0.7022   0.00855   0.00348   0.0084  0.2165  0.6791  -1.9738   0.0000   0.2181
   7.000   0.7463   0.00883   0.00375   0.0109  0.2017  0.7041  -2.0827   0.0000   0.2150
   7.500   0.7932   0.00903   0.00401   0.0128  0.1934  0.7300  -2.2014   0.0000   0.2129
   8.000   0.8391   0.00943   0.00441   0.0147  0.1811  0.7553  -2.3265   0.0000   0.2109
   8.500   0.8879   0.00974   0.00478   0.0161  0.1728  0.7815  -2.4577   0.0000   0.2098
   9.000   0.9317   0.01025   0.00528   0.0182  0.1597  0.8076  -2.5853   0.0000   0.2078
   9.500   0.9795   0.01062   0.00572   0.0196  0.1537  0.8333  -2.7322   0.0000   0.2067
  10.000   1.0223   0.01119   0.00632   0.0218  0.1449  0.8594  -2.8738   0.0000   0.2048
  10.500   1.0664   0.01174   0.00692   0.0236  0.1363  0.8840  -3.0195   0.0000   0.2034
  11.000   1.1063   0.01243   0.00765   0.0259  0.1290  0.9088  -3.1609   0.0000   0.2013
  11.500   1.1437   0.01326   0.00851   0.0285  0.1196  0.9322  -3.3117   0.0000   0.1990
  12.000   1.1840   0.01396   0.00928   0.0307  0.1167  0.9536  -3.4725   0.0000   0.1972
  12.500   1.2146   0.01503   0.01036   0.0341  0.1107  0.9750  -3.6180   0.0000   0.1942
  13.000   1.2503   0.01626   0.01159   0.0361  0.1027  0.9909  -3.7729   0.0000   0.1925
  14.000   1.3462   0.01919   0.01448   0.0341  0.0929  0.9995  -4.1345   0.0000   0.1945
  14.500   1.3668   0.02083   0.01614   0.0375  0.0870  1.0000  -4.2804   0.0000   0.1913
  15.000   1.3954   0.02245   0.01780   0.0395  0.0857  1.0000  -4.4450   0.0000   0.1894
  15.500   1.4212   0.02453   0.01991   0.0412  0.0829  1.0000  -4.6040   0.0000   0.1876
  16.000   1.4400   0.02727   0.02266   0.0429  0.0787  1.0000  -4.7467   0.0000   0.1857
  16.500   1.4568   0.03029   0.02570   0.0443  0.0733  1.0000  -4.8844   0.0000   0.1839
  17.000   1.4787   0.03313   0.02861   0.0450  0.0721  1.0000  -5.0355   0.0000   0.1826
  17.500   1.4970   0.03638   0.03193   0.0457  0.0705  1.0000  -5.1781   0.0000   0.1814
  18.000   1.5060   0.04054   0.03614   0.0462  0.0677  1.0000  -5.2963   0.0000   0.1799
  18.500   1.5067   0.04552   0.04117   0.0465  0.0645  1.0000  -5.3905   0.0000   0.1783
  19.000   1.5052   0.05085   0.04657   0.0465  0.0607  1.0000  -5.4807   0.0000   0.1768
  19.500   1.5064   0.05616   0.05198   0.0461  0.0591  1.0000  -5.5869   0.0000   0.1756
  20.000   1.5079   0.06156   0.05749   0.0454  0.0586  1.0000  -5.6927   0.0000   0.1747
  20.500   1.5037   0.06759   0.06364   0.0444  0.0578  1.0000  -5.7793   0.0000   0.1738
  21.000   1.4925   0.07435   0.07051   0.0431  0.0565  1.0000  -5.8411   0.0000   0.1728
  21.500   1.4743   0.08214   0.07841   0.0413  0.0548  1.0000  -5.8757   0.0000   0.1721
  22.000   1.4493   0.09087   0.08723   0.0388  0.0527  1.0000  -5.8822   0.0000   0.1715
  22.500   1.4222   0.09993   0.09641   0.0359  0.0501  1.0000  -5.8738   0.0000   0.1713
  23.000   1.3933   0.10938   0.10599   0.0325  0.0477  1.0000  -5.8511   0.0000   0.1715
  23.500   1.3744   0.11790   0.11464   0.0289  0.0470  1.0000  -5.8589   0.0000   0.1720
  24.000   1.3735   0.12414   0.12097   0.0260  0.0468  1.0000  -5.9313   0.0000   0.1726
  24.500   1.3575   0.13247   0.12942   0.0219  0.0462  1.0000  -5.9397   0.0000   0.1736
  25.000   1.3383   0.14123   0.13830   0.0173  0.0453  1.0000  -5.9285   0.0000   0.1751


