XFLR5 v6.09.01 beta

 Calculated polar for: NACA 0012

 1 1 Reynolds number fixed          Mach number fixed         

 xtrf =   1.000 (top)        1.000 (bottom)
 Mach =   0.139     Re =     3.000 e 6     Ncrit =   9.000

  alpha     CL        CD       CDp       Cm    Top Xtr Bot Xtr   Cpmin    Chinge    XCp    
 ------- -------- --------- --------- -------- ------- ------- -------- --------- ---------
 -10.000  -1.1329   0.01145   0.00651  -0.0006  1.0000  0.0164  -6.0202   0.0000   0.2383
  -9.500  -1.0892   0.01091   0.00597   0.0021  1.0000  0.0180  -5.5706   0.0000   0.2414
  -8.500  -0.9718   0.00987   0.00490   0.0011  0.9975  0.0223  -4.5968   0.0000   0.2418
  -8.000  -0.9072   0.00932   0.00440  -0.0008  0.9953  0.0260  -4.1143   0.0000   0.2404
  -7.500  -0.8408   0.00887   0.00397  -0.0029  0.9935  0.0294  -3.6464   0.0000   0.2383
  -7.000  -0.7793   0.00839   0.00353  -0.0040  0.9886  0.0357  -3.2165   0.0000   0.2371
  -6.500  -0.7185   0.00794   0.00314  -0.0049  0.9808  0.0448  -2.8614   0.0000   0.2359
  -6.000  -0.6640   0.00757   0.00281  -0.0043  0.9670  0.0544  -2.5473   0.0000   0.2367
  -5.500  -0.6102   0.00721   0.00250  -0.0035  0.9493  0.0672  -2.2476   0.0000   0.2378
  -5.000  -0.5564   0.00687   0.00219  -0.0027  0.9268  0.0843  -1.9599   0.0000   0.2390
  -4.500  -0.5022   0.00653   0.00191  -0.0021  0.8996  0.1105  -1.7042   0.0000   0.2401
  -4.000  -0.4471   0.00625   0.00166  -0.0016  0.8685  0.1374  -1.4791   0.0000   0.2409
  -3.500  -0.3924   0.00596   0.00142  -0.0011  0.8297  0.1778  -1.2633   0.0000   0.2419
  -2.500  -0.2815   0.00553   0.00107  -0.0005  0.7429  0.2651  -0.9210   0.0000   0.2433
  -2.000  -0.2255   0.00535   0.00095  -0.0003  0.6995  0.3140  -0.7816   0.0000   0.2438
  -1.500  -0.1695   0.00523   0.00085  -0.0002  0.6514  0.3643  -0.6647   0.0000   0.2443
  -1.000  -0.1132   0.00513   0.00078  -0.0001  0.6043  0.4145  -0.5667   0.0000   0.2447
  -0.500  -0.0565   0.00508   0.00075  -0.0001  0.5581  0.4619  -0.4865   0.0000   0.2446
   0.000  -0.0000   0.00509   0.00074  -0.0000  0.5072  0.5072  -0.4190   0.0000   0.0211
   0.500   0.0565   0.00508   0.00075   0.0001  0.4619  0.5581  -0.4865   0.0000   0.2446
   1.000   0.1132   0.00513   0.00078   0.0001  0.4145  0.6043  -0.5667   0.0000   0.2447
   1.500   0.1695   0.00523   0.00085   0.0002  0.3643  0.6514  -0.6647   0.0000   0.2443
   2.000   0.2255   0.00535   0.00095   0.0003  0.3140  0.6995  -0.7816   0.0000   0.2438
   2.500   0.2815   0.00553   0.00107   0.0005  0.2651  0.7429  -0.9210   0.0000   0.2433
   3.000   0.3370   0.00572   0.00123   0.0008  0.2198  0.7898  -1.0844   0.0000   0.2426
   3.500   0.3924   0.00596   0.00142   0.0011  0.1778  0.8297  -1.2634   0.0000   0.2419
   4.000   0.4471   0.00625   0.00166   0.0016  0.1374  0.8685  -1.4791   0.0000   0.2409
   4.500   0.5022   0.00653   0.00191   0.0020  0.1105  0.8996  -1.7042   0.0000   0.2401
   5.000   0.5565   0.00687   0.00219   0.0027  0.0843  0.9268  -1.9601   0.0000   0.2390
   5.500   0.6103   0.00721   0.00250   0.0035  0.0671  0.9493  -2.2477   0.0000   0.2378
   6.000   0.6640   0.00757   0.00281   0.0043  0.0544  0.9670  -2.5474   0.0000   0.2367
   6.500   0.7185   0.00794   0.00314   0.0049  0.0448  0.9808  -2.8615   0.0000   0.2359
   7.000   0.7793   0.00839   0.00353   0.0040  0.0357  0.9886  -3.2167   0.0000   0.2371
   7.500   0.8408   0.00887   0.00397   0.0029  0.0294  0.9936  -3.6468   0.0000   0.2383
   8.000   0.9073   0.00932   0.00440   0.0008  0.0260  0.9953  -4.1147   0.0000   0.2404
   8.500   0.9719   0.00987   0.00490  -0.0011  0.0222  0.9975  -4.5972   0.0000   0.2418
   9.500   1.0890   0.01091   0.00597  -0.0021  0.0181  1.0000  -5.5698   0.0000   0.2414
  10.000   1.1328   0.01145   0.00650   0.0006  0.0164  1.0000  -6.0198   0.0000   0.2383
  10.500   1.1769   0.01214   0.00720   0.0031  0.0142  1.0000  -6.4778   0.0000   0.2355
  11.000   1.2215   0.01300   0.00816   0.0054  0.0124  1.0000  -6.9362   0.0000   0.2331
  11.500   1.2696   0.01367   0.00888   0.0069  0.0121  1.0000  -7.4543   0.0000   0.2313
  12.000   1.3186   0.01427   0.00950   0.0082  0.0119  1.0000  -8.0060   0.0000   0.2297
  12.500   1.3668   0.01494   0.01020   0.0096  0.0116  1.0000  -8.6247   0.0000   0.2281
  13.000   1.4128   0.01576   0.01105   0.0113  0.0107  1.0000  -9.2650   0.0000   0.2263
  13.500   1.4549   0.01682   0.01214   0.0135  0.0095  1.0000  -9.8918   0.0000   0.2241
  14.000   1.4922   0.01815   0.01355   0.0163  0.0085  1.0000  -10.4893   0.0000   0.2216
  14.500   1.5222   0.01968   0.01524   0.0200  0.0079  1.0000  -11.0441   0.0000   0.2185
  15.000   1.5405   0.02151   0.01724   0.0251  0.0076  1.0000  -11.5269   0.0000   0.2144
  15.500   1.5530   0.02395   0.01988   0.0296  0.0074  1.0000  -11.9673   0.0000   0.2106
  16.000   1.5574   0.02738   0.02354   0.0332  0.0073  1.0000  -12.3391   0.0000   0.2074
  16.500   1.5523   0.03237   0.02879   0.0349  0.0071  1.0000  -12.6181   0.0000   0.2050
  17.000   1.5357   0.03974   0.03644   0.0337  0.0070  1.0000  -12.7714   0.0000   0.2043
  17.500   1.5056   0.05008   0.04707   0.0294  0.0070  1.0000  -12.7656   0.0000   0.2054
  18.000   1.4616   0.06331   0.06057   0.0228  0.0069  1.0000  -12.5863   0.0000   0.2080
  18.500   1.4054   0.07922   0.07675   0.0145  0.0070  1.0000  -12.2382   0.0000   0.2120
  19.000   1.3413   0.09677   0.09453   0.0055  0.0070  1.0000  -11.7541   0.0000   0.2170
  19.500   1.2725   0.11606   0.11403  -0.0046  0.0071  1.0000  -11.1427   0.0000   0.2238
  20.000   1.2064   0.13545   0.13362  -0.0151  0.0072  1.0000  -10.4790   0.0000   0.2317
  20.500   1.1462   0.15525   0.15361  -0.0264  0.0072  1.0000  -9.7735   0.0000   0.2414
  21.000   1.0903   0.17533   0.17387  -0.0382  0.0073  1.0000  -8.9953   0.0000   0.2529
  21.500   1.0299   0.19913   0.19787  -0.0523  0.0073  1.0000  -7.9219   0.0000   0.2685
  22.000   0.9138   0.24928   0.24825  -0.0783  0.0063  1.0000  -4.7212   0.0000   0.3066
  22.500   0.9282   0.25560   0.25457  -0.0827  0.0057  1.0000  -4.8331   0.0000   0.3089
  24.000   0.9396   0.29898   0.29797  -0.1049  0.0048  1.0000  -2.5370   0.0000   0.3313
  24.500   0.9555   0.30433   0.30332  -0.1092  0.0042  1.0000  -2.7097   0.0000   0.3328
  25.000   0.9713   0.30941   0.30841  -0.1136  0.0038  1.0000  -2.9101   0.0000   0.3341


