XFLR5 v6.09.01 beta

 Calculated polar for: NACA 13012

 1 1 Reynolds number fixed          Mach number fixed         

 xtrf =   1.000 (top)        1.000 (bottom)
 Mach =   0.139     Re =     3.000 e 6     Ncrit =   9.000

  alpha     CL        CD       CDp       Cm    Top Xtr Bot Xtr   Cpmin    Chinge    XCp    
 ------- -------- --------- --------- -------- ------- ------- -------- --------- ---------
 -10.000  -1.0921   0.01565   0.01172  -0.0064  1.0000  0.0012  -9.8383   0.0000   0.2350
  -9.500  -1.0593   0.01394   0.00977  -0.0019  1.0000  0.0011  -9.0657   0.0000   0.2396
  -9.000  -1.0249   0.01231   0.00788   0.0024  1.0000  0.0011  -8.3103   0.0000   0.2444
  -8.500  -0.9887   0.01094   0.00623   0.0066  1.0000  0.0012  -7.5837   0.0000   0.2493
  -8.000  -0.9311   0.00999   0.00508   0.0064  0.9990  0.0024  -6.7666   0.0000   0.2501
  -7.500  -0.8679   0.00935   0.00445   0.0048  0.9974  0.0035  -5.7815   0.0000   0.2493
  -7.000  -0.8034   0.00874   0.00387   0.0030  0.9959  0.0075  -4.8521   0.0000   0.2479
  -6.500  -0.7444   0.00811   0.00330   0.0023  0.9936  0.0158  -4.1746   0.0000   0.2478
  -6.000  -0.6823   0.00763   0.00289   0.0010  0.9905  0.0235  -3.5359   0.0000   0.2467
  -5.500  -0.6178   0.00728   0.00255  -0.0007  0.9876  0.0265  -2.9319   0.0000   0.2444
  -5.000  -0.5521   0.00690   0.00223  -0.0028  0.9850  0.0351  -2.3723   0.0000   0.2409
  -4.500  -0.4873   0.00657   0.00195  -0.0046  0.9821  0.0436  -1.9280   0.0000   0.2368
  -4.000  -0.4295   0.00625   0.00167  -0.0048  0.9719  0.0512  -1.6512   0.0000   0.2354
  -3.500  -0.3575   0.00579   0.00137  -0.0084  0.9620  0.0861  -1.3614   0.0000   0.2233
  -3.000  -0.2980   0.00533   0.00110  -0.0091  0.9346  0.1407  -1.1560   0.0000   0.2164
  -2.500  -0.2449   0.00504   0.00090  -0.0083  0.8885  0.1956  -0.9698   0.0000   0.2132
  -2.000  -0.1958   0.00480   0.00072  -0.0066  0.8301  0.2660  -0.8016   0.0000   0.2136
  -1.500  -0.1477   0.00463   0.00060  -0.0047  0.7663  0.3362  -0.6526   0.0000   0.2153
  -1.000  -0.0986   0.00452   0.00051  -0.0031  0.6958  0.4008  -0.5222   0.0000   0.2161
  -0.500  -0.0485   0.00441   0.00047  -0.0017  0.6369  0.4722  -0.4046   0.0000   0.2125
   0.000  -0.0000   0.00425   0.00045  -0.0000  0.5744  0.5744  -0.3156   0.0000  -0.0831
   0.500   0.0485   0.00441   0.00047   0.0017  0.4722  0.6371  -0.4046   0.0000   0.2125
   1.000   0.0986   0.00452   0.00052   0.0031  0.4008  0.6959  -0.5222   0.0000   0.2161
   1.500   0.1477   0.00463   0.00060   0.0047  0.3362  0.7663  -0.6526   0.0000   0.2153
   2.000   0.1958   0.00480   0.00072   0.0066  0.2660  0.8301  -0.8016   0.0000   0.2136
   2.500   0.2449   0.00504   0.00090   0.0083  0.1956  0.8885  -0.9698   0.0000   0.2132
   3.000   0.2980   0.00533   0.00110   0.0091  0.1407  0.9346  -1.1560   0.0000   0.2164
   3.500   0.3575   0.00579   0.00137   0.0084  0.0861  0.9620  -1.3614   0.0000   0.2233
   4.000   0.4295   0.00625   0.00167   0.0048  0.0512  0.9719  -1.6512   0.0000   0.2354
   4.500   0.4873   0.00657   0.00195   0.0046  0.0436  0.9821  -1.9280   0.0000   0.2368
   5.000   0.5521   0.00690   0.00223   0.0028  0.0351  0.9850  -2.3724   0.0000   0.2409
   5.500   0.6178   0.00728   0.00255   0.0007  0.0265  0.9876  -2.9320   0.0000   0.2444
   6.000   0.6823   0.00763   0.00289  -0.0010  0.0235  0.9905  -3.5360   0.0000   0.2467
   6.500   0.7444   0.00811   0.00330  -0.0023  0.0158  0.9936  -4.1748   0.0000   0.2478
   7.000   0.8035   0.00874   0.00386  -0.0030  0.0075  0.9959  -4.8525   0.0000   0.2480
   7.500   0.8680   0.00935   0.00445  -0.0048  0.0035  0.9974  -5.7820   0.0000   0.2493
   8.000   0.9312   0.00999   0.00508  -0.0064  0.0024  0.9990  -6.7672   0.0000   0.2501
   8.500   0.9887   0.01094   0.00623  -0.0066  0.0012  1.0000  -7.5834   0.0000   0.2493
   9.000   1.0249   0.01231   0.00787  -0.0024  0.0011  1.0000  -8.3100   0.0000   0.2444
   9.500   1.0593   0.01394   0.00976   0.0019  0.0011  1.0000  -9.0655   0.0000   0.2396
  10.000   1.0921   0.01565   0.01172   0.0064  0.0012  1.0000  -9.8381   0.0000   0.2350
  10.500   1.1238   0.01745   0.01374   0.0108  0.0012  1.0000  -10.6383   0.0000   0.2305
  11.000   1.1536   0.01940   0.01594   0.0152  0.0013  1.0000  -11.4570   0.0000   0.2262
  11.500   1.1791   0.02163   0.01842   0.0200  0.0014  1.0000  -12.2397   0.0000   0.2218
  12.000   1.1965   0.02447   0.02155   0.0253  0.0016  1.0000  -12.9136   0.0000   0.2169
  12.500   1.1898   0.02843   0.02590   0.0331  0.0017  1.0000  -13.2303   0.0000   0.2096
  13.000   1.1378   0.03563   0.03360   0.0404  0.0019  1.0000  -12.8129   0.0000   0.2011
  13.500   1.0903   0.04780   0.04615   0.0337  0.0020  1.0000  -12.3938   0.0000   0.2045
  14.000   1.0667   0.06243   0.06097   0.0216  0.0019  1.0000  -12.2928   0.0000   0.2143
  14.500   1.0299   0.07928   0.07793   0.0116  0.0017  1.0000  -11.8924   0.0000   0.2226
  15.000   0.9579   0.10122   0.09995   0.0005  0.0016  1.0000  -10.6672   0.0000   0.2330
  15.500   0.8813   0.12410   0.12291  -0.0110  0.0015  1.0000  -9.1276   0.0000   0.2460
  16.000   0.8233   0.14652   0.14540  -0.0218  0.0014  1.0000  -7.6530   0.0000   0.2602
  16.500   0.7851   0.16639   0.16533  -0.0306  0.0015  1.0000  -6.3598   0.0000   0.2731


