XFLR5 v6.09.01 beta

 Calculated polar for: NACA 23012

 1 1 Reynolds number fixed          Mach number fixed         

 xtrf =   1.000 (top)        1.000 (bottom)
 Mach =   0.139     Re =     3.000 e 6     Ncrit =   9.000

  alpha     CL        CD       CDp       Cm    Top Xtr Bot Xtr   Cpmin    Chinge    XCp    
 ------- -------- --------- --------- -------- ------- ------- -------- --------- ---------
  -9.500  -0.9402   0.01201   0.00762  -0.0149  0.9978  0.0108  -8.4561   0.0000   0.2246
  -9.000  -0.8762   0.01129   0.00686  -0.0163  0.9954  0.0113  -7.7632   0.0000   0.2223
  -8.500  -0.8105   0.01066   0.00619  -0.0181  0.9932  0.0117  -7.0840   0.0000   0.2191
  -8.000  -0.7492   0.01001   0.00550  -0.0189  0.9872  0.0121  -6.4615   0.0000   0.2166
  -7.500  -0.6945   0.00932   0.00476  -0.0182  0.9745  0.0132  -5.9062   0.0000   0.2160
  -7.000  -0.6418   0.00890   0.00430  -0.0170  0.9565  0.0139  -5.3635   0.0000   0.2161
  -6.500  -0.5887   0.00854   0.00388  -0.0158  0.9329  0.0147  -4.8420   0.0000   0.2161
  -6.000  -0.5353   0.00821   0.00343  -0.0147  0.8993  0.0155  -4.3443   0.0000   0.2157
  -5.500  -0.4821   0.00797   0.00301  -0.0136  0.8391  0.0171  -3.8840   0.0000   0.2153
  -5.000  -0.4268   0.00781   0.00270  -0.0130  0.7886  0.0182  -3.4566   0.0000   0.2132
  -4.500  -0.3712   0.00761   0.00235  -0.0125  0.7411  0.0200  -3.0532   0.0000   0.2100
  -4.000  -0.3149   0.00751   0.00211  -0.0122  0.6919  0.0219  -2.6598   0.0000   0.2051
  -3.500  -0.2587   0.00740   0.00187  -0.0119  0.6410  0.0248  -2.2891   0.0000   0.1978
  -3.000  -0.2021   0.00734   0.00168  -0.0117  0.5910  0.0279  -1.9505   0.0000   0.1857
  -2.500  -0.1455   0.00731   0.00152  -0.0116  0.5420  0.0323  -1.6451   0.0000   0.1638
  -2.000  -0.0888   0.00729   0.00139  -0.0114  0.4922  0.0387  -1.3556   0.0000   0.1133
  -1.500  -0.0320   0.00730   0.00129  -0.0113  0.4455  0.0478  -1.0937   0.0000  -0.1180
  -1.000   0.0246   0.00732   0.00122  -0.0113  0.3985  0.0640  -0.8600   0.0000   0.7134
  -0.500   0.0807   0.00725   0.00117  -0.0111  0.3560  0.1144  -0.6510   0.0000   0.3864
   0.000   0.1304   0.00622   0.00099  -0.0103  0.3182  0.4462  -0.7177   0.0000   0.3259
   0.500   0.1849   0.00598   0.00100  -0.0099  0.2848  0.5760  -0.7905   0.0000   0.3002
   1.000   0.2404   0.00585   0.00105  -0.0097  0.2595  0.6723  -0.8680   0.0000   0.2863
   1.500   0.2961   0.00579   0.00113  -0.0095  0.2398  0.7525  -0.9490   0.0000   0.2775
   2.000   0.3514   0.00572   0.00124  -0.0090  0.2259  0.8320  -1.0331   0.0000   0.2709
   2.500   0.4078   0.00579   0.00135  -0.0088  0.2146  0.8723  -1.1227   0.0000   0.2665
   3.000   0.4644   0.00590   0.00148  -0.0086  0.2050  0.9009  -1.2155   0.0000   0.2632
   3.500   0.5207   0.00601   0.00162  -0.0084  0.1977  0.9253  -1.3140   0.0000   0.2603
   4.000   0.5765   0.00615   0.00177  -0.0080  0.1903  0.9460  -1.4161   0.0000   0.2577
   4.500   0.6315   0.00633   0.00194  -0.0075  0.1828  0.9632  -1.5219   0.0000   0.2553
   5.000   0.6871   0.00652   0.00212  -0.0071  0.1761  0.9764  -1.6353   0.0000   0.2533
   5.500   0.7450   0.00673   0.00231  -0.0073  0.1697  0.9864  -1.7577   0.0000   0.2523
   6.000   0.8079   0.00699   0.00253  -0.0087  0.1623  0.9916  -1.8938   0.0000   0.2528
   6.500   0.8739   0.00728   0.00277  -0.0108  0.1544  0.9941  -2.0440   0.0000   0.2539
   7.000   0.9403   0.00755   0.00302  -0.0131  0.1475  0.9961  -2.2103   0.0000   0.2549
   7.500   1.0059   0.00787   0.00331  -0.0152  0.1393  0.9980  -2.3999   0.0000   0.2554
   8.000   1.0715   0.00823   0.00363  -0.0173  0.1295  0.9993  -2.6535   0.0000   0.2559
   8.500   1.1272   0.00862   0.00398  -0.0174  0.1196  1.0000  -2.9425   0.0000   0.2544
   9.000   1.1731   0.00904   0.00435  -0.0153  0.1098  1.0000  -3.2407   0.0000   0.2514
   9.500   1.2200   0.00949   0.00477  -0.0134  0.0996  1.0000  -3.5681   0.0000   0.2487
  10.000   1.2671   0.01004   0.00527  -0.0117  0.0881  1.0000  -3.9263   0.0000   0.2462
  10.500   1.3143   0.01073   0.00589  -0.0102  0.0742  1.0000  -4.3043   0.0000   0.2439
  11.000   1.3609   0.01155   0.00664  -0.0087  0.0600  1.0000  -4.7173   0.0000   0.2417
  11.500   1.4060   0.01254   0.00755  -0.0070  0.0455  1.0000  -5.1383   0.0000   0.2395
  12.000   1.4506   0.01353   0.00850  -0.0054  0.0351  1.0000  -5.5721   0.0000   0.2374
  12.500   1.4941   0.01455   0.00950  -0.0036  0.0277  1.0000  -6.0453   0.0000   0.2353
  13.000   1.5358   0.01563   0.01059  -0.0017  0.0220  1.0000  -6.5311   0.0000   0.2330
  13.500   1.5755   0.01674   0.01172   0.0005  0.0183  1.0000  -7.0231   0.0000   0.2307
  14.000   1.6118   0.01793   0.01296   0.0031  0.0156  1.0000  -7.5121   0.0000   0.2281
  14.500   1.6406   0.01913   0.01423   0.0069  0.0140  1.0000  -7.9742   0.0000   0.2248
  15.000   1.6624   0.02078   0.01595   0.0110  0.0122  1.0000  -8.4045   0.0000   0.2214
  15.500   1.6850   0.02257   0.01785   0.0143  0.0114  1.0000  -8.8668   0.0000   0.2185
  16.000   1.7015   0.02502   0.02039   0.0172  0.0104  1.0000  -9.3105   0.0000   0.2158
  16.500   1.7088   0.02860   0.02410   0.0193  0.0092  1.0000  -9.6892   0.0000   0.2134
  17.000   1.7171   0.03266   0.02831   0.0201  0.0089  1.0000  -10.0797   0.0000   0.2118
  17.500   1.7164   0.03826   0.03408   0.0194  0.0086  1.0000  -10.3973   0.0000   0.2109
  18.000   1.7018   0.04615   0.04217   0.0170  0.0082  1.0000  -10.5948   0.0000   0.2108
  18.500   1.6675   0.05723   0.05348   0.0127  0.0080  1.0000  -10.6113   0.0000   0.2119
  19.000   1.6071   0.07247   0.06901   0.0061  0.0080  1.0000  -10.3762   0.0000   0.2143
  19.500   1.5228   0.09175   0.08860  -0.0024  0.0082  1.0000  -9.8885   0.0000   0.2184
  20.000   1.4369   0.11203   0.10918  -0.0120  0.0085  1.0000  -9.3357   0.0000   0.2240
  20.500   1.3735   0.12957   0.12694  -0.0208  0.0085  1.0000  -8.9461   0.0000   0.2297
  21.000   1.3316   0.14428   0.14182  -0.0288  0.0084  1.0000  -8.7248   0.0000   0.2350
  21.500   1.3007   0.15745   0.15513  -0.0364  0.0082  1.0000  -8.5816   0.0000   0.2403
  22.000   1.2777   0.16973   0.16753  -0.0440  0.0080  1.0000  -8.4883   0.0000   0.2456
  22.500   1.2616   0.18101   0.17891  -0.0514  0.0077  1.0000  -8.4427   0.0000   0.2507
  23.000   1.2466   0.19233   0.19033  -0.0591  0.0072  1.0000  -8.3791   0.0000   0.2562
  23.500   1.2315   0.20420   0.20231  -0.0675  0.0068  1.0000  -8.2698   0.0000   0.2625
  24.000   1.2289   0.21343   0.21163  -0.0743  0.0067  1.0000  -8.3205   0.0000   0.2669
  24.500   1.2277   0.22246   0.22074  -0.0811  0.0065  1.0000  -8.3736   0.0000   0.2712
  25.000   1.2270   0.23151   0.22986  -0.0881  0.0063  1.0000  -8.4149   0.0000   0.2757


