XFLR5 v6.09.01 beta

 Calculated polar for: NACA 3512

 1 1 Reynolds number fixed          Mach number fixed         

 xtrf =   1.000 (top)        1.000 (bottom)
 Mach =   0.139     Re =     3.000 e 6     Ncrit =   9.000

  alpha     CL        CD       CDp       Cm    Top Xtr Bot Xtr   Cpmin    Chinge    XCp    
 ------- -------- --------- --------- -------- ------- ------- -------- --------- ---------
 -10.000  -0.7408   0.01030   0.00594  -0.0946  0.9475  0.0136  -6.5557   0.0000   0.1100
  -9.500  -0.6860   0.00961   0.00518  -0.0942  0.9395  0.0152  -6.0334   0.0000   0.1008
  -9.000  -0.6309   0.00907   0.00459  -0.0938  0.9287  0.0172  -5.5170   0.0000   0.0898
  -8.500  -0.5742   0.00868   0.00417  -0.0937  0.9194  0.0185  -5.0030   0.0000   0.0755
  -8.000  -0.5173   0.00839   0.00384  -0.0936  0.9079  0.0188  -4.5045   0.0000   0.0579
  -7.500  -0.4609   0.00788   0.00327  -0.0934  0.8968  0.0229  -4.0477   0.0000   0.0362
  -7.000  -0.4039   0.00753   0.00289  -0.0933  0.8837  0.0260  -3.5951   0.0000   0.0077
  -6.500  -0.3462   0.00726   0.00258  -0.0934  0.8714  0.0282  -3.2014   0.0000  -0.0314
  -6.000  -0.2892   0.00694   0.00225  -0.0934  0.8555  0.0351  -2.8539   0.0000  -0.0850
  -5.500  -0.2311   0.00670   0.00198  -0.0935  0.8428  0.0405  -2.5141   0.0000  -0.1678
  -5.000  -0.1738   0.00649   0.00174  -0.0935  0.8242  0.0471  -2.1927   0.0000  -0.3035
  -4.500  -0.1158   0.00625   0.00152  -0.0937  0.8095  0.0585  -1.8857   0.0000  -0.5787
  -4.000  -0.0580   0.00605   0.00134  -0.0938  0.7921  0.0727  -1.6078   0.0000  -1.3996
  -3.500  -0.0007   0.00589   0.00117  -0.0938  0.7698  0.0915  -1.3732   0.0000  -144.5123
  -3.000   0.0573   0.00569   0.00103  -0.0940  0.7529  0.1164  -1.1495   0.0000   1.9155
  -2.500   0.1150   0.00554   0.00092  -0.0942  0.7328  0.1448  -0.9512   0.0000   1.0779
  -2.000   0.1725   0.00543   0.00084  -0.0943  0.7097  0.1784  -0.7787   0.0000   0.8011
  -1.000   0.2873   0.00525   0.00076  -0.0946  0.6620  0.2591  -0.5553   0.0000   0.5797
  -0.500   0.3448   0.00519   0.00075  -0.0947  0.6377  0.3042  -0.5962   0.0000   0.5242
   0.000   0.4020   0.00517   0.00077  -0.0948  0.6112  0.3514  -0.6400   0.0000   0.4846
   0.500   0.4590   0.00518   0.00082  -0.0949  0.5827  0.4015  -0.6873   0.0000   0.4548
   1.000   0.5156   0.00522   0.00089  -0.0949  0.5517  0.4563  -0.7396   0.0000   0.4316
   1.500   0.5716   0.00529   0.00100  -0.0948  0.5170  0.5181  -0.7972   0.0000   0.4129
   2.000   0.6271   0.00539   0.00113  -0.0946  0.4780  0.5884  -0.8642   0.0000   0.3975
   2.500   0.6822   0.00548   0.00130  -0.0943  0.4395  0.6742  -0.9482   0.0000   0.3844
   3.000   0.7354   0.00560   0.00152  -0.0937  0.3925  0.7914  -1.0607   0.0000   0.3731
   3.500   0.7812   0.00566   0.00180  -0.0912  0.3446  0.9603  -1.1927   0.0000   0.3620
   4.000   0.8427   0.00615   0.00207  -0.0924  0.2897  1.0000  -1.3754   0.0000   0.3544
   4.500   0.8945   0.00669   0.00238  -0.0915  0.2406  1.0000  -1.5740   0.0000   0.3466
   5.000   0.9453   0.00730   0.00274  -0.0905  0.1900  1.0000  -1.7857   0.0000   0.3395
   5.500   0.9949   0.00801   0.00320  -0.0893  0.1394  1.0000  -2.0301   0.0000   0.3329
   6.000   1.0452   0.00866   0.00365  -0.0881  0.1023  1.0000  -2.2973   0.0000   0.3270
   6.500   1.0957   0.00926   0.00410  -0.0870  0.0780  1.0000  -2.5765   0.0000   0.3215
   7.000   1.1459   0.00986   0.00458  -0.0859  0.0580  1.0000  -2.8748   0.0000   0.3164
   7.500   1.1960   0.01043   0.00507  -0.0847  0.0457  1.0000  -3.2320   0.0000   0.3116
   8.000   1.2453   0.01102   0.00560  -0.0834  0.0361  1.0000  -3.5995   0.0000   0.3071
   8.500   1.2940   0.01161   0.00615  -0.0820  0.0306  1.0000  -3.9806   0.0000   0.3028
   9.000   1.3424   0.01218   0.00672  -0.0805  0.0262  1.0000  -4.3734   0.0000   0.2988
   9.500   1.3884   0.01286   0.00736  -0.0787  0.0225  1.0000  -4.7733   0.0000   0.2947
  10.000   1.4329   0.01356   0.00807  -0.0765  0.0187  1.0000  -5.1779   0.0000   0.2907
  10.500   1.4760   0.01419   0.00872  -0.0742  0.0176  1.0000  -5.5979   0.0000   0.2868
  11.000   1.5122   0.01502   0.00955  -0.0706  0.0155  1.0000  -6.0196   0.0000   0.2824
  11.500   1.5457   0.01603   0.01059  -0.0667  0.0130  1.0000  -6.4752   0.0000   0.2781
  12.000   1.5796   0.01705   0.01168  -0.0631  0.0121  1.0000  -6.9515   0.0000   0.2740
  12.500   1.6150   0.01799   0.01266  -0.0600  0.0119  1.0000  -7.4613   0.0000   0.2703
  13.000   1.6484   0.01909   0.01383  -0.0568  0.0115  1.0000  -7.9741   0.0000   0.2667
  13.500   1.6775   0.02049   0.01526  -0.0532  0.0105  1.0000  -8.4714   0.0000   0.2630
  14.000   1.7019   0.02227   0.01709  -0.0494  0.0094  1.0000  -8.9468   0.0000   0.2593
  14.500   1.7219   0.02442   0.01933  -0.0454  0.0084  1.0000  -9.3946   0.0000   0.2557
  15.000   1.7387   0.02700   0.02205  -0.0416  0.0078  1.0000  -9.8241   0.0000   0.2522
  15.500   1.7498   0.03014   0.02537  -0.0378  0.0075  1.0000  -10.2194   0.0000   0.2489
  16.000   1.7549   0.03404   0.02946  -0.0344  0.0072  1.0000  -10.5744   0.0000   0.2458
  16.500   1.7528   0.03896   0.03460  -0.0315  0.0069  1.0000  -10.8722   0.0000   0.2430
  17.000   1.7562   0.04369   0.03948  -0.0297  0.0069  1.0000  -11.2352   0.0000   0.2408
  17.500   1.7611   0.04862   0.04453  -0.0287  0.0068  1.0000  -11.6176   0.0000   0.2389
  18.000   1.7638   0.05409   0.05013  -0.0282  0.0068  1.0000  -11.9843   0.0000   0.2373
  18.500   1.7634   0.06016   0.05635  -0.0282  0.0068  1.0000  -12.3249   0.0000   0.2361
  19.000   1.7548   0.06745   0.06378  -0.0290  0.0068  1.0000  -12.5910   0.0000   0.2353
  19.500   1.7439   0.07531   0.07180  -0.0304  0.0067  1.0000  -12.8305   0.0000   0.2348
  20.000   1.7287   0.08404   0.08069  -0.0324  0.0067  1.0000  -13.0203   0.0000   0.2348
  20.500   1.7042   0.09440   0.09123  -0.0356  0.0066  1.0000  -13.1042   0.0000   0.2356
  21.000   1.6749   0.10548   0.10249  -0.0395  0.0066  1.0000  -13.1206   0.0000   0.2369
  21.500   1.6407   0.11779   0.11499  -0.0445  0.0065  1.0000  -13.0583   0.0000   0.2391
  22.000   1.5996   0.13167   0.12908  -0.0511  0.0065  1.0000  -12.8800   0.0000   0.2425
  22.500   1.5564   0.14622   0.14383  -0.0587  0.0064  1.0000  -12.6288   0.0000   0.2470
  23.000   1.5166   0.16064   0.15844  -0.0669  0.0064  1.0000  -12.3644   0.0000   0.2521
  23.500   1.4713   0.17710   0.17511  -0.0772  0.0063  1.0000  -11.9532   0.0000   0.2592
  24.000   1.4281   0.19417   0.19238  -0.0884  0.0062  1.0000  -11.4799   0.0000   0.2675
  24.500   1.3978   0.20931   0.20766  -0.0988  0.0061  1.0000  -11.1193   0.0000   0.2751
  25.000   1.3611   0.22706   0.22558  -0.1112  0.0059  1.0000  -10.5444   0.0000   0.2851


