XFLR5 v6.09.01 beta

 Calculated polar for: NACA 3612

 1 1 Reynolds number fixed          Mach number fixed         

 xtrf =   1.000 (top)        1.000 (bottom)
 Mach =   0.139     Re =     3.000 e 6     Ncrit =   9.000

  alpha     CL        CD       CDp       Cm    Top Xtr Bot Xtr   Cpmin    Chinge    XCp    
 ------- -------- --------- --------- -------- ------- ------- -------- --------- ---------
 -10.000  -0.7011   0.00991   0.00550  -0.1096  0.9428  0.0152  -6.1100   0.0000   0.0808
  -9.500  -0.6455   0.00931   0.00490  -0.1095  0.9376  0.0173  -5.5915   0.0000   0.0678
  -9.000  -0.5890   0.00890   0.00444  -0.1095  0.9302  0.0185  -5.0819   0.0000   0.0519
  -8.500  -0.5315   0.00858   0.00409  -0.1096  0.9227  0.0189  -4.5831   0.0000   0.0316
  -8.000  -0.4746   0.00802   0.00350  -0.1097  0.9183  0.0232  -4.1253   0.0000   0.0068
  -7.500  -0.4172   0.00764   0.00311  -0.1098  0.9114  0.0262  -3.6711   0.0000  -0.0255
  -7.000  -0.3596   0.00736   0.00278  -0.1100  0.9007  0.0287  -3.2626   0.0000  -0.0684
  -6.500  -0.3018   0.00697   0.00244  -0.1102  0.8948  0.0354  -2.9120   0.0000  -0.1284
  -6.000  -0.2441   0.00670   0.00214  -0.1103  0.8837  0.0418  -2.5756   0.0000  -0.2162
  -5.500  -0.1859   0.00644   0.00188  -0.1106  0.8741  0.0481  -2.2500   0.0000  -0.3613
  -5.000  -0.1275   0.00617   0.00164  -0.1109  0.8653  0.0591  -1.9416   0.0000  -0.6402
  -4.500  -0.0698   0.00593   0.00143  -0.1110  0.8518  0.0762  -1.6600   0.0000  -1.3730
  -4.000  -0.0110   0.00566   0.00124  -0.1114  0.8451  0.0959  -1.4216   0.0000  -10.0228
  -3.500   0.0470   0.00545   0.00108  -0.1117  0.8325  0.1191  -1.1966   0.0000   2.6596
  -3.000   0.1054   0.00523   0.00095  -0.1120  0.8212  0.1508  -0.9961   0.0000   1.3256
  -2.500   0.1636   0.00504   0.00084  -0.1123  0.8076  0.1872  -0.8218   0.0000   0.9429
  -2.000   0.2219   0.00489   0.00076  -0.1126  0.7932  0.2212  -0.6692   0.0000   0.7610
  -1.500   0.2794   0.00478   0.00070  -0.1127  0.7731  0.2630  -0.5376   0.0000   0.6552
  -1.000   0.3374   0.00466   0.00068  -0.1130  0.7542  0.3063  -0.5419   0.0000   0.5853
  -0.500   0.3945   0.00464   0.00068  -0.1130  0.7263  0.3477  -0.5842   0.0000   0.5361
   0.000   0.4500   0.00472   0.00072  -0.1127  0.6829  0.3917  -0.6300   0.0000   0.4994
   0.500   0.5039   0.00493   0.00081  -0.1121  0.6190  0.4359  -0.6802   0.0000   0.4708
   1.000   0.5578   0.00519   0.00095  -0.1116  0.5597  0.4775  -0.7375   0.0000   0.4478
   1.500   0.6119   0.00544   0.00111  -0.1111  0.5051  0.5231  -0.8059   0.0000   0.4288
   2.000   0.6656   0.00573   0.00129  -0.1105  0.4499  0.5637  -0.8937   0.0000   0.4128
   2.500   0.7190   0.00608   0.00150  -0.1099  0.3948  0.6013  -1.0085   0.0000   0.3991
   3.000   0.7719   0.00646   0.00174  -0.1091  0.3401  0.6339  -1.1495   0.0000   0.3872
   3.500   0.8241   0.00689   0.00203  -0.1083  0.2855  0.6666  -1.3178   0.0000   0.3768
   4.000   0.8759   0.00733   0.00234  -0.1074  0.2348  0.7072  -1.5120   0.0000   0.3675
   4.500   0.9258   0.00784   0.00275  -0.1061  0.1784  0.7764  -1.7206   0.0000   0.3590
   5.000   0.9724   0.00800   0.00316  -0.1040  0.1357  1.0000  -1.9468   0.0000   0.3508
   5.500   1.0230   0.00861   0.00358  -0.1028  0.1006  1.0000  -2.2154   0.0000   0.3438
   6.000   1.0737   0.00920   0.00401  -0.1017  0.0760  1.0000  -2.4937   0.0000   0.3375
   6.500   1.1246   0.00973   0.00444  -0.1006  0.0584  1.0000  -2.7843   0.0000   0.3316
   7.000   1.1749   0.01028   0.00492  -0.0994  0.0458  1.0000  -3.1272   0.0000   0.3261
   7.500   1.2246   0.01085   0.00541  -0.0980  0.0362  1.0000  -3.4945   0.0000   0.3210
   8.000   1.2739   0.01140   0.00592  -0.0966  0.0312  1.0000  -3.8767   0.0000   0.3161
   8.500   1.3224   0.01196   0.00646  -0.0951  0.0264  1.0000  -4.2704   0.0000   0.3115
   9.000   1.3694   0.01257   0.00705  -0.0932  0.0231  1.0000  -4.6729   0.0000   0.3070
   9.500   1.4138   0.01329   0.00776  -0.0909  0.0188  1.0000  -5.0740   0.0000   0.3025
  10.000   1.4576   0.01385   0.00833  -0.0885  0.0180  1.0000  -5.4986   0.0000   0.2981
  10.500   1.4967   0.01459   0.00907  -0.0853  0.0161  1.0000  -5.9120   0.0000   0.2936
  11.000   1.5330   0.01550   0.01001  -0.0817  0.0136  1.0000  -6.3453   0.0000   0.2891
  11.500   1.5680   0.01652   0.01111  -0.0779  0.0121  1.0000  -6.8208   0.0000   0.2847
  12.000   1.6051   0.01735   0.01197  -0.0747  0.0120  1.0000  -7.3400   0.0000   0.2808
  12.500   1.6413   0.01829   0.01295  -0.0716  0.0117  1.0000  -7.8697   0.0000   0.2769
  13.000   1.6742   0.01941   0.01412  -0.0680  0.0110  1.0000  -8.3940   0.0000   0.2730
  13.500   1.7026   0.02085   0.01560  -0.0640  0.0099  1.0000  -8.8997   0.0000   0.2691
  14.000   1.7266   0.02259   0.01741  -0.0597  0.0088  1.0000  -9.3813   0.0000   0.2651
  14.500   1.7474   0.02465   0.01959  -0.0553  0.0080  1.0000  -9.8446   0.0000   0.2612
  15.000   1.7644   0.02710   0.02220  -0.0510  0.0076  1.0000  -10.2887   0.0000   0.2574
  15.500   1.7750   0.03008   0.02536  -0.0465  0.0073  1.0000  -10.6936   0.0000   0.2537
  16.000   1.7788   0.03388   0.02936  -0.0421  0.0071  1.0000  -11.0501   0.0000   0.2501
  16.500   1.7782   0.03835   0.03405  -0.0384  0.0069  1.0000  -11.3778   0.0000   0.2469
  17.000   1.7868   0.04231   0.03814  -0.0360  0.0069  1.0000  -11.8029   0.0000   0.2443
  17.500   1.7935   0.04682   0.04277  -0.0342  0.0068  1.0000  -12.2166   0.0000   0.2420
  18.000   1.7958   0.05217   0.04827  -0.0331  0.0068  1.0000  -12.5955   0.0000   0.2401
  18.500   1.7948   0.05823   0.05447  -0.0328  0.0068  1.0000  -12.9452   0.0000   0.2387
  19.000   1.7889   0.06512   0.06150  -0.0332  0.0068  1.0000  -13.2474   0.0000   0.2376
  19.500   1.7762   0.07336   0.06991  -0.0346  0.0067  1.0000  -13.4776   0.0000   0.2372
  20.000   1.7558   0.08302   0.07975  -0.0372  0.0067  1.0000  -13.6196   0.0000   0.2375
  20.500   1.7276   0.09405   0.09098  -0.0407  0.0066  1.0000  -13.6650   0.0000   0.2386
  21.000   1.6892   0.10681   0.10395  -0.0456  0.0066  1.0000  -13.5764   0.0000   0.2406
  21.500   1.6429   0.12143   0.11880  -0.0522  0.0066  1.0000  -13.3607   0.0000   0.2440
  22.000   1.5911   0.13754   0.13514  -0.0604  0.0066  1.0000  -13.0238   0.0000   0.2489
  22.500   1.5353   0.15475   0.15258  -0.0701  0.0065  1.0000  -12.5693   0.0000   0.2554
  23.000   1.4815   0.17287   0.17092  -0.0813  0.0065  1.0000  -12.0444   0.0000   0.2634
  23.500   1.4324   0.19129   0.18955  -0.0934  0.0065  1.0000  -11.4781   0.0000   0.2727
  24.000   1.3984   0.20742   0.20584  -0.1044  0.0064  1.0000  -11.0474   0.0000   0.2810
  24.500   1.3610   0.22558   0.22418  -0.1172  0.0063  1.0000  -10.4437   0.0000   0.2915
  25.000   1.3402   0.23969   0.23840  -0.1285  0.0061  1.0000  -10.0146   0.0000   0.3002


