XFLR5 v6.09.01 beta

 Calculated polar for: NACA 3212

 1 1 Reynolds number fixed          Mach number fixed         

 xtrf =   1.000 (top)        1.000 (bottom)
 Mach =   0.139     Re =     3.000 e 6     Ncrit =   9.000

  alpha     CL        CD       CDp       Cm    Top Xtr Bot Xtr   Cpmin    Chinge    XCp    
 ------- -------- --------- --------- -------- ------- ------- -------- --------- ---------
 -10.000  -0.7959   0.01152   0.00745  -0.0617  0.9801  0.0101  -9.2935   0.0000   0.1615
  -9.500  -0.7432   0.01108   0.00701  -0.0604  0.9670  0.0112  -8.6145   0.0000   0.1582
  -9.000  -0.6888   0.01078   0.00670  -0.0594  0.9520  0.0117  -7.9278   0.0000   0.1536
  -8.500  -0.6333   0.01055   0.00647  -0.0587  0.9368  0.0120  -7.2542   0.0000   0.1475
  -8.000  -0.5774   0.01036   0.00624  -0.0581  0.9183  0.0121  -6.6078   0.0000   0.1399
  -7.500  -0.5221   0.01002   0.00583  -0.0574  0.8962  0.0122  -6.0044   0.0000   0.1307
  -7.000  -0.4706   0.00887   0.00439  -0.0562  0.8685  0.0130  -5.5226   0.0000   0.1214
  -6.500  -0.4170   0.00834   0.00362  -0.0552  0.8246  0.0138  -5.0136   0.0000   0.1086
  -6.000  -0.3621   0.00797   0.00304  -0.0545  0.7793  0.0148  -4.5109   0.0000   0.0904
  -5.500  -0.3062   0.00769   0.00265  -0.0540  0.7419  0.0168  -4.0193   0.0000   0.0642
  -5.000  -0.2492   0.00755   0.00243  -0.0538  0.7075  0.0185  -3.5334   0.0000   0.0243
  -4.500  -0.1921   0.00751   0.00229  -0.0536  0.6683  0.0189  -3.0666   0.0000  -0.0401
  -4.000  -0.1361   0.00728   0.00188  -0.0532  0.6246  0.0229  -2.7232   0.0000  -0.1542
  -3.500  -0.0792   0.00719   0.00169  -0.0531  0.5849  0.0259  -2.3787   0.0000  -0.4383
  -3.000  -0.0225   0.00722   0.00156  -0.0529  0.5372  0.0278  -2.0474   0.0000  -2.1540
  -2.500   0.0343   0.00716   0.00139  -0.0528  0.4957  0.0347  -1.7397   0.0000   1.8157
  -2.000   0.0909   0.00722   0.00130  -0.0526  0.4483  0.0399  -1.4422   0.0000   0.8354
  -1.500   0.1475   0.00730   0.00126  -0.0525  0.4034  0.0472  -1.1604   0.0000   0.6083
  -1.000   0.2039   0.00739   0.00123  -0.0524  0.3577  0.0590  -0.9314   0.0000   0.5071
  -0.500   0.2602   0.00752   0.00124  -0.0523  0.3145  0.0739  -0.8082   0.0000   0.4499
   0.000   0.3170   0.00756   0.00126  -0.0523  0.2876  0.0995  -0.8731   0.0000   0.4130
   0.500   0.3739   0.00760   0.00130  -0.0524  0.2658  0.1338  -0.9394   0.0000   0.3873
   1.000   0.4281   0.00690   0.00130  -0.0523  0.2577  0.4233  -1.0047   0.0000   0.3688
   1.500   0.4830   0.00658   0.00139  -0.0521  0.2441  0.6041  -1.0711   0.0000   0.3542
   2.000   0.5386   0.00630   0.00149  -0.0520  0.2409  0.7486  -1.1395   0.0000   0.3422
   2.500   0.5929   0.00611   0.00162  -0.0513  0.2385  0.8716  -1.2119   0.0000   0.3319
   3.000   0.6451   0.00609   0.00178  -0.0501  0.2353  0.9479  -1.2854   0.0000   0.3224
   3.500   0.7031   0.00625   0.00193  -0.0502  0.2304  0.9846  -1.3644   0.0000   0.3157
   4.500   0.8408   0.00670   0.00230  -0.0557  0.2194  0.9982  -1.5477   0.0000   0.3096
   5.000   0.9060   0.00684   0.00244  -0.0576  0.2188  1.0000  -1.6439   0.0000   0.3064
   5.500   0.9572   0.00698   0.00259  -0.0565  0.2177  1.0000  -1.7290   0.0000   0.3012
   6.000   1.0095   0.00713   0.00275  -0.0556  0.2157  1.0000  -1.8230   0.0000   0.2967
   6.500   1.0625   0.00733   0.00295  -0.0548  0.2121  1.0000  -1.9207   0.0000   0.2927
   7.000   1.1155   0.00763   0.00319  -0.0542  0.2016  1.0000  -2.0275   0.0000   0.2890
   7.500   1.1702   0.00784   0.00341  -0.0539  0.1963  1.0000  -2.2577   0.0000   0.2858
   8.000   1.2247   0.00809   0.00364  -0.0536  0.1892  1.0000  -2.5328   0.0000   0.2828
   8.500   1.2778   0.00848   0.00398  -0.0531  0.1756  1.0000  -2.8388   0.0000   0.2799
   9.000   1.3287   0.00903   0.00441  -0.0523  0.1545  1.0000  -3.1767   0.0000   0.2769
   9.500   1.3757   0.00988   0.00508  -0.0509  0.1251  1.0000  -3.5145   0.0000   0.2738
  10.000   1.4182   0.01108   0.00605  -0.0489  0.0866  1.0000  -3.8464   0.0000   0.2705
  10.500   1.4584   0.01241   0.00717  -0.0465  0.0542  1.0000  -4.1878   0.0000   0.2672
  11.000   1.5002   0.01352   0.00816  -0.0444  0.0365  1.0000  -4.6045   0.0000   0.2641
  11.500   1.5423   0.01449   0.00910  -0.0424  0.0274  1.0000  -5.0397   0.0000   0.2611
  12.000   1.5832   0.01543   0.01004  -0.0402  0.0227  1.0000  -5.4853   0.0000   0.2581
  12.500   1.6203   0.01638   0.01101  -0.0374  0.0184  1.0000  -5.9298   0.0000   0.2549
  13.000   1.6508   0.01745   0.01211  -0.0335  0.0161  1.0000  -6.3575   0.0000   0.2512
  13.500   1.6765   0.01885   0.01355  -0.0294  0.0126  1.0000  -6.7661   0.0000   0.2474
  14.000   1.7051   0.02016   0.01494  -0.0261  0.0119  1.0000  -7.2094   0.0000   0.2442
  14.500   1.7298   0.02180   0.01666  -0.0228  0.0112  1.0000  -7.6405   0.0000   0.2410
  15.000   1.7481   0.02405   0.01898  -0.0194  0.0099  1.0000  -8.0403   0.0000   0.2379
  15.500   1.7585   0.02710   0.02213  -0.0162  0.0083  1.0000  -8.3916   0.0000   0.2349
  16.000   1.7636   0.03106   0.02625  -0.0138  0.0072  1.0000  -8.7009   0.0000   0.2324
  17.500   1.7596   0.04768   0.04336  -0.0127  0.0068  1.0000  -9.5737   0.0000   0.2280
  18.000   1.7405   0.05621   0.05207  -0.0144  0.0067  1.0000  -9.7609   0.0000   0.2277
  18.500   1.7098   0.06681   0.06289  -0.0174  0.0067  1.0000  -9.8384   0.0000   0.2282
  19.000   1.6580   0.08067   0.07700  -0.0218  0.0067  1.0000  -9.7151   0.0000   0.2299
  19.500   1.6017   0.09559   0.09216  -0.0270  0.0067  1.0000  -9.5258   0.0000   0.2324
  20.000   1.5450   0.11093   0.10773  -0.0330  0.0067  1.0000  -9.3031   0.0000   0.2356
  20.500   1.4938   0.12582   0.12283  -0.0393  0.0066  1.0000  -9.1008   0.0000   0.2394
  21.000   1.4577   0.13884   0.13601  -0.0454  0.0066  1.0000  -9.0145   0.0000   0.2430
  21.500   1.4444   0.14810   0.14538  -0.0500  0.0064  1.0000  -9.1458   0.0000   0.2451
  22.000   1.4206   0.15925   0.15666  -0.0559  0.0062  1.0000  -9.1463   0.0000   0.2485
  22.500   1.4140   0.16754   0.16503  -0.0605  0.0058  1.0000  -9.3221   0.0000   0.2506
  23.000   1.3964   0.17829   0.17588  -0.0668  0.0055  1.0000  -9.3478   0.0000   0.2544
  23.500   1.3796   0.18922   0.18692  -0.0736  0.0051  1.0000  -9.3555   0.0000   0.2586
  24.000   1.3735   0.19813   0.19591  -0.0795  0.0046  1.0000  -9.4786   0.0000   0.2616
  24.500   1.3578   0.20951   0.20742  -0.0870  0.0043  1.0000  -9.4402   0.0000   0.2666
  25.000   1.3443   0.22077   0.21881  -0.0948  0.0041  1.0000  -9.3982   0.0000   0.2717


