XFLR5 v6.09.01 beta

 Calculated polar for: NACA 3412

 1 1 Reynolds number fixed          Mach number fixed         

 xtrf =   1.000 (top)        1.000 (bottom)
 Mach =   0.139     Re =     3.000 e 6     Ncrit =   9.000

  alpha     CL        CD       CDp       Cm    Top Xtr Bot Xtr   Cpmin    Chinge    XCp    
 ------- -------- --------- --------- -------- ------- ------- -------- --------- ---------
 -10.000  -0.7653   0.01099   0.00682  -0.0826  0.9582  0.0125  -7.0454   0.0000   0.1302
  -9.500  -0.7140   0.01008   0.00572  -0.0815  0.9434  0.0134  -6.5306   0.0000   0.1245
  -9.000  -0.6602   0.00942   0.00493  -0.0807  0.9276  0.0147  -6.0095   0.0000   0.1168
  -8.500  -0.6046   0.00886   0.00434  -0.0803  0.9161  0.0166  -5.4884   0.0000   0.1065
  -8.000  -0.5487   0.00849   0.00391  -0.0799  0.9005  0.0183  -4.9741   0.0000   0.0938
  -7.500  -0.4915   0.00822   0.00360  -0.0798  0.8864  0.0188  -4.4693   0.0000   0.0772
  -7.000  -0.4350   0.00780   0.00309  -0.0795  0.8695  0.0214  -4.0037   0.0000   0.0568
  -6.500  -0.3785   0.00746   0.00271  -0.0793  0.8503  0.0252  -3.5523   0.0000   0.0300
  -6.000  -0.3210   0.00724   0.00244  -0.0792  0.8325  0.0269  -3.1635   0.0000  -0.0077
  -5.500  -0.2640   0.00695   0.00212  -0.0791  0.8111  0.0333  -2.8157   0.0000  -0.0613
  -5.000  -0.2065   0.00678   0.00188  -0.0791  0.7885  0.0364  -2.4739   0.0000  -0.1458
  -4.500  -0.1494   0.00657   0.00164  -0.0790  0.7641  0.0456  -2.1532   0.0000  -0.2943
  -4.000  -0.0921   0.00642   0.00145  -0.0790  0.7366  0.0550  -1.8464   0.0000  -0.6285
  -3.500  -0.0348   0.00628   0.00129  -0.0790  0.7097  0.0689  -1.5638   0.0000  -2.0639
  -3.000   0.0224   0.00618   0.00114  -0.0790  0.6804  0.0843  -1.3297   0.0000   3.8272
  -2.500   0.0798   0.00609   0.00104  -0.0791  0.6519  0.1027  -1.1072   0.0000   1.2531
  -2.000   0.1369   0.00599   0.00095  -0.0791  0.6222  0.1329  -0.9049   0.0000   0.8328
  -1.500   0.1942   0.00593   0.00090  -0.0792  0.5936  0.1653  -0.7340   0.0000   0.6599
  -1.000   0.2514   0.00589   0.00087  -0.0793  0.5652  0.2001  -0.5920   0.0000   0.5658
  -0.500   0.3085   0.00584   0.00086  -0.0793  0.5386  0.2470  -0.6339   0.0000   0.5066
   0.000   0.3658   0.00577   0.00088  -0.0795  0.5181  0.3029  -0.6785   0.0000   0.4659
   0.500   0.4231   0.00568   0.00091  -0.0796  0.4980  0.3680  -0.7253   0.0000   0.4362
   1.000   0.4794   0.00547   0.00096  -0.0797  0.4768  0.4985  -0.7744   0.0000   0.4137
   1.500   0.5357   0.00532   0.00105  -0.0797  0.4592  0.6222  -0.8273   0.0000   0.3957
   2.000   0.5921   0.00516   0.00116  -0.0797  0.4440  0.7374  -0.8853   0.0000   0.3810
   2.500   0.6463   0.00507   0.00130  -0.0791  0.4223  0.8572  -0.9481   0.0000   0.3684
   3.000   0.6971   0.00503   0.00145  -0.0775  0.4062  0.9564  -1.0178   0.0000   0.3567
   3.500   0.7594   0.00527   0.00160  -0.0787  0.3783  0.9920  -1.1196   0.0000   0.3487
   4.000   0.8276   0.00564   0.00181  -0.0814  0.3399  1.0000  -1.2738   0.0000   0.3429
   4.500   0.8784   0.00604   0.00203  -0.0803  0.3027  1.0000  -1.4400   0.0000   0.3354
   5.000   0.9297   0.00651   0.00232  -0.0793  0.2610  1.0000  -1.6378   0.0000   0.3288
   5.500   0.9802   0.00712   0.00268  -0.0782  0.2134  1.0000  -1.8497   0.0000   0.3227
   6.000   1.0291   0.00788   0.00318  -0.0769  0.1596  1.0000  -2.0978   0.0000   0.3171
   6.500   1.0787   0.00859   0.00366  -0.0757  0.1181  1.0000  -2.3633   0.0000   0.3120
   7.000   1.1283   0.00928   0.00418  -0.0745  0.0865  1.0000  -2.6393   0.0000   0.3073
   7.500   1.1774   0.00999   0.00474  -0.0733  0.0628  1.0000  -2.9548   0.0000   0.3029
   8.000   1.2269   0.01062   0.00528  -0.0721  0.0470  1.0000  -3.3074   0.0000   0.2987
   8.500   1.2760   0.01125   0.00584  -0.0709  0.0373  1.0000  -3.6731   0.0000   0.2948
   9.000   1.3248   0.01184   0.00640  -0.0696  0.0318  1.0000  -4.0536   0.0000   0.2911
   9.500   1.3725   0.01248   0.00703  -0.0681  0.0264  1.0000  -4.4414   0.0000   0.2874
  10.000   1.4180   0.01319   0.00772  -0.0663  0.0224  1.0000  -4.8383   0.0000   0.2838
  10.500   1.4622   0.01392   0.00845  -0.0643  0.0187  1.0000  -5.2406   0.0000   0.2802
  11.000   1.5052   0.01462   0.00917  -0.0621  0.0174  1.0000  -5.6879   0.0000   0.2767
  11.500   1.5395   0.01552   0.01007  -0.0583  0.0151  1.0000  -6.1391   0.0000   0.2725
  12.000   1.5703   0.01662   0.01123  -0.0542  0.0125  1.0000  -6.5791   0.0000   0.2683
  13.000   1.6364   0.01872   0.01344  -0.0476  0.0118  1.0000  -7.5496   0.0000   0.2611
  13.500   1.6660   0.02006   0.01484  -0.0443  0.0112  1.0000  -8.0363   0.0000   0.2576
  14.000   1.6908   0.02179   0.01663  -0.0407  0.0101  1.0000  -8.5020   0.0000   0.2541
  14.500   1.7100   0.02403   0.01893  -0.0370  0.0090  1.0000  -8.9358   0.0000   0.2507
  15.000   1.7250   0.02678   0.02180  -0.0336  0.0081  1.0000  -9.3414   0.0000   0.2474
  15.500   1.7368   0.03008   0.02525  -0.0305  0.0076  1.0000  -9.7278   0.0000   0.2445
  16.000   1.7406   0.03427   0.02963  -0.0278  0.0073  1.0000  -10.0611   0.0000   0.2417
  16.500   1.7385   0.03947   0.03504  -0.0258  0.0070  1.0000  -10.3478   0.0000   0.2394
  17.000   1.7354   0.04520   0.04096  -0.0248  0.0069  1.0000  -10.6377   0.0000   0.2376
  17.500   1.7377   0.05061   0.04649  -0.0243  0.0069  1.0000  -10.9822   0.0000   0.2361
  18.000   1.7345   0.05704   0.05306  -0.0247  0.0068  1.0000  -11.2829   0.0000   0.2351
  18.500   1.7297   0.06386   0.06002  -0.0254  0.0068  1.0000  -11.5686   0.0000   0.2343
  19.000   1.7207   0.07125   0.06755  -0.0265  0.0068  1.0000  -11.8165   0.0000   0.2337
  19.500   1.7035   0.08007   0.07654  -0.0285  0.0067  1.0000  -11.9845   0.0000   0.2337
  20.000   1.6861   0.08912   0.08574  -0.0309  0.0067  1.0000  -12.1411   0.0000   0.2339
  20.500   1.6666   0.09860   0.09538  -0.0338  0.0066  1.0000  -12.2672   0.0000   0.2345
  21.000   1.6438   0.10853   0.10546  -0.0371  0.0065  1.0000  -12.3499   0.0000   0.2354
  21.500   1.6158   0.11974   0.11684  -0.0416  0.0065  1.0000  -12.3575   0.0000   0.2372
  22.000   1.5864   0.13143   0.12871  -0.0468  0.0064  1.0000  -12.3248   0.0000   0.2396
  22.500   1.5593   0.14301   0.14044  -0.0525  0.0062  1.0000  -12.2862   0.0000   0.2424
  23.000   1.5296   0.15505   0.15264  -0.0590  0.0061  1.0000  -12.1864   0.0000   0.2459
  23.500   1.4920   0.16935   0.16712  -0.0675  0.0059  1.0000  -11.9364   0.0000   0.2513
  24.000   1.4620   0.18279   0.18072  -0.0759  0.0058  1.0000  -11.7287   0.0000   0.2566
  24.500   1.4248   0.19854   0.19665  -0.0864  0.0056  1.0000  -11.3473   0.0000   0.2641
  25.000   1.3950   0.21345   0.21171  -0.0966  0.0054  1.0000  -10.9995   0.0000   0.2716


