XFLR5 v6.09.01 beta

 Calculated polar for: NACA 3112

 1 1 Reynolds number fixed          Mach number fixed         

 xtrf =   1.000 (top)        1.000 (bottom)
 Mach =   0.139     Re =     3.000 e 6     Ncrit =   9.000

  alpha     CL        CD       CDp       Cm    Top Xtr Bot Xtr   Cpmin    Chinge    XCp    
 ------- -------- --------- --------- -------- ------- ------- -------- --------- ---------
  -9.000  -0.4037   0.08269   0.08176  -0.0280  1.0000  0.0075  -3.1071   0.0000   0.1715
  -8.500  -0.3904   0.07528   0.07436  -0.0352  0.9926  0.0078  -2.9832   0.0000   0.1513
  -8.000  -0.3894   0.06479   0.06373  -0.0483  0.9441  0.0080  -3.0491   0.0000   0.1185
  -7.500  -0.3757   0.05835   0.05706  -0.0517  0.9003  0.0085  -2.9183   0.0000   0.1056
  -7.000  -0.3523   0.05271   0.05116  -0.0535  0.8576  0.0098  -2.7388   0.0000   0.0914
  -6.500  -0.3128   0.04869   0.04683  -0.0539  0.8130  0.0117  -2.5628   0.0000   0.0709
  -6.000  -0.2797   0.04338   0.04117  -0.0538  0.7661  0.0119  -2.4196   0.0000   0.0507
  -5.500  -0.2428   0.03841   0.03582  -0.0531  0.7154  0.0119  -2.2555   0.0000   0.0241
  -5.000  -0.2026   0.03386   0.03085  -0.0520  0.6596  0.0120  -2.1440   0.0000  -0.0142
  -4.500  -0.1602   0.02976   0.02625  -0.0505  0.5824  0.0120  -2.0696   0.0000  -0.0738
  -4.000  -0.1149   0.02600   0.02201  -0.0489  0.5161  0.0120  -1.9886   0.0000  -0.1858
  -3.000  -0.0321   0.00895   0.00330  -0.0407  0.4386  0.0118  -3.3861   0.0000  -1.0516
  -2.500   0.0251   0.00945   0.00361  -0.0407  0.3677  0.0121  -2.8249   0.0000   1.9026
  -2.000   0.0766   0.00872   0.00252  -0.0397  0.3027  0.0133  -2.4593   0.0000   0.7746
  -1.500   0.1307   0.00868   0.00213  -0.0391  0.2294  0.0139  -2.0540   0.0000   0.5509
  -1.000   0.1855   0.00877   0.00193  -0.0386  0.1663  0.0146  -1.6654   0.0000   0.4579
  -0.500   0.2418   0.00880   0.00180  -0.0384  0.1369  0.0160  -1.3303   0.0000   0.4071
   0.000   0.2991   0.00888   0.00187  -0.0384  0.1303  0.0187  -1.1328   0.0000   0.3759
   0.500   0.3561   0.00888   0.00180  -0.0383  0.1219  0.0228  -1.2332   0.0000   0.3544
   1.000   0.4135   0.00891   0.00182  -0.0383  0.1194  0.0261  -1.3377   0.0000   0.3390
   1.500   0.4710   0.00893   0.00186  -0.0384  0.1185  0.0333  -1.4464   0.0000   0.3273
   2.000   0.5282   0.00900   0.00193  -0.0384  0.1165  0.0425  -1.5550   0.0000   0.3181
   2.500   0.5851   0.00910   0.00205  -0.0385  0.1141  0.0583  -1.6633   0.0000   0.3105
   3.500   0.6875   0.00752   0.00243  -0.0370  0.1110  0.8707  -1.8697   0.0000   0.2976
   4.000   0.7365   0.00755   0.00269  -0.0350  0.1097  0.9750  -1.9741   0.0000   0.2908
   4.500   0.8031   0.00782   0.00293  -0.0372  0.1091  0.9942  -2.1084   0.0000   0.2890
   5.000   0.8774   0.00813   0.00321  -0.0413  0.1087  0.9986  -2.2647   0.0000   0.2892
   5.500   0.9381   0.00842   0.00349  -0.0423  0.1085  1.0000  -2.4063   0.0000   0.2867
   6.000   0.9872   0.00869   0.00378  -0.0408  0.1083  1.0000  -2.5348   0.0000   0.2823
   6.500   1.0373   0.00900   0.00409  -0.0395  0.1082  1.0000  -2.6667   0.0000   0.2784
   7.000   1.0889   0.00932   0.00443  -0.0386  0.1081  1.0000  -2.8025   0.0000   0.2752
   7.500   1.1413   0.00968   0.00481  -0.0380  0.1079  1.0000  -2.9414   0.0000   0.2722
   8.000   1.1939   0.01006   0.00522  -0.0374  0.1078  1.0000  -3.0823   0.0000   0.2696
   8.500   1.2462   0.01047   0.00566  -0.0368  0.1076  1.0000  -3.2245   0.0000   0.2670
   9.000   1.2981   0.01091   0.00615  -0.0361  0.1074  1.0000  -3.3677   0.0000   0.2646
   9.500   1.3492   0.01139   0.00668  -0.0354  0.1070  1.0000  -3.5112   0.0000   0.2622
  10.000   1.3989   0.01195   0.00730  -0.0345  0.1060  1.0000  -3.6534   0.0000   0.2598
  10.500   1.4457   0.01271   0.00813  -0.0332  0.1045  1.0000  -3.7965   0.0000   0.2572
  11.000   1.4898   0.01362   0.00915  -0.0315  0.1027  1.0000  -3.9464   0.0000   0.2545
  11.500   1.5449   0.01364   0.00916  -0.0314  0.1026  1.0000  -4.1313   0.0000   0.2528
  12.000   1.5995   0.01369   0.00921  -0.0314  0.1023  1.0000  -4.3180   0.0000   0.2511
  12.500   1.6564   0.01359   0.00909  -0.0316  0.1015  1.0000  -4.8835   0.0000   0.2496
  13.000   1.7094   0.01373   0.00923  -0.0313  0.0999  1.0000  -5.4648   0.0000   0.2478
  13.500   1.7598   0.01401   0.00952  -0.0306  0.0960  1.0000  -6.0571   0.0000   0.2458
  14.000   1.7994   0.01480   0.01017  -0.0284  0.0817  1.0000  -6.6122   0.0000   0.2431
  14.500   1.7660   0.01937   0.01437  -0.0164  0.0320  1.0000  -6.7340   0.0000   0.2358
  15.000   1.7617   0.02289   0.01788  -0.0102  0.0159  1.0000  -7.0298   0.0000   0.2312
  15.500   1.7691   0.02602   0.02107  -0.0064  0.0103  1.0000  -7.4063   0.0000   0.2280
  16.000   1.7749   0.02964   0.02479  -0.0037  0.0071  1.0000  -7.7764   0.0000   0.2253
  16.500   1.7832   0.03344   0.02873  -0.0022  0.0063  1.0000  -8.1730   0.0000   0.2231
  17.000   1.7805   0.03867   0.03410  -0.0014  0.0054  1.0000  -8.4916   0.0000   0.2214
  17.500   1.7664   0.04576   0.04137  -0.0020  0.0045  1.0000  -8.7197   0.0000   0.2204
  18.000   1.7428   0.05458   0.05040  -0.0039  0.0037  1.0000  -8.8601   0.0000   0.2202
  18.500   1.7021   0.06661   0.06268  -0.0081  0.0034  1.0000  -8.8469   0.0000   0.2213
  19.000   1.6399   0.08229   0.07866  -0.0143  0.0034  1.0000  -8.6418   0.0000   0.2239
  19.500   1.5422   0.10449   0.10124  -0.0240  0.0045  1.0000  -8.0999   0.0000   0.2295
  20.000   1.4073   0.13387   0.13111  -0.0377  0.0062  1.0000  -7.1379   0.0000   0.2400
  20.500   1.2799   0.16480   0.16244  -0.0542  0.0081  1.0000  -6.1158   0.0000   0.2553
  21.000   1.2364   0.18167   0.17947  -0.0640  0.0082  1.0000  -5.8415   0.0000   0.2640
  21.500   1.1943   0.19964   0.19762  -0.0747  0.0086  1.0000  -5.5167   0.0000   0.2742
  22.000   1.2014   0.20639   0.20438  -0.0791  0.0067  1.0000  -5.7437   0.0000   0.2762
  22.500   1.2099   0.21278   0.21079  -0.0834  0.0058  1.0000  -5.9916   0.0000   0.2779
  23.000   1.2164   0.21969   0.21770  -0.0882  0.0046  1.0000  -6.2099   0.0000   0.2801
  23.500   1.2006   0.23283   0.23095  -0.0967  0.0039  1.0000  -6.0951   0.0000   0.2873
  24.000   1.2083   0.23965   0.23782  -0.1017  0.0031  1.0000  -6.2900   0.0000   0.2895
  24.500   1.2218   0.24444   0.24264  -0.1061  0.0030  1.0000  -6.6007   0.0000   0.2905
  25.000   1.2355   0.24902   0.24725  -0.1106  0.0030  1.0000  -6.9206   0.0000   0.2915


