XFLR5 v6.09.01 beta

 Calculated polar for: NACA 3312

 1 1 Reynolds number fixed          Mach number fixed         

 xtrf =   1.000 (top)        1.000 (bottom)
 Mach =   0.139     Re =     3.000 e 6     Ncrit =   9.000

  alpha     CL        CD       CDp       Cm    Top Xtr Bot Xtr   Cpmin    Chinge    XCp    
 ------- -------- --------- --------- -------- ------- ------- -------- --------- ---------
 -10.000  -0.7829   0.01151   0.00747  -0.0719  0.9685  0.0120  -7.8053   0.0000   0.1467
  -9.500  -0.7289   0.01112   0.00705  -0.0710  0.9552  0.0121  -7.1828   0.0000   0.1416
  -9.000  -0.6772   0.01021   0.00596  -0.0698  0.9405  0.0127  -6.6437   0.0000   0.1363
  -8.500  -0.6245   0.00941   0.00498  -0.0687  0.9203  0.0135  -6.1233   0.0000   0.1296
  -8.000  -0.5702   0.00884   0.00425  -0.0679  0.8973  0.0147  -5.6035   0.0000   0.1208
  -7.500  -0.5148   0.00838   0.00372  -0.0674  0.8764  0.0166  -5.0866   0.0000   0.1093
  -7.000  -0.4581   0.00806   0.00336  -0.0671  0.8569  0.0183  -4.5748   0.0000   0.0938
  -6.500  -0.4010   0.00786   0.00309  -0.0669  0.8353  0.0188  -4.0749   0.0000   0.0734
  -6.000  -0.3447   0.00752   0.00263  -0.0665  0.8081  0.0214  -3.6199   0.0000   0.0471
  -5.500  -0.2884   0.00727   0.00231  -0.0662  0.7767  0.0251  -3.2156   0.0000   0.0100
  -4.500  -0.1745   0.00694   0.00180  -0.0659  0.7150  0.0330  -2.5105   0.0000  -0.1403
  -4.000  -0.1172   0.00684   0.00163  -0.0658  0.6828  0.0363  -2.1797   0.0000  -0.3274
  -3.500  -0.0602   0.00671   0.00144  -0.0657  0.6490  0.0454  -1.8683   0.0000  -0.8675
  -3.000  -0.0033   0.00665   0.00129  -0.0656  0.6097  0.0557  -1.5740   0.0000  -19.9244
  -2.500   0.0537   0.00662   0.00118  -0.0656  0.5731  0.0679  -1.3183   0.0000   1.4897
  -2.000   0.1107   0.00659   0.00110  -0.0656  0.5364  0.0835  -1.0947   0.0000   0.8482
  -1.500   0.1677   0.00659   0.00105  -0.0656  0.5015  0.1038  -0.8823   0.0000   0.6431
  -1.000   0.2247   0.00657   0.00101  -0.0656  0.4697  0.1329  -0.6991   0.0000   0.5422
  -0.500   0.2817   0.00654   0.00100  -0.0656  0.4411  0.1717  -0.7016   0.0000   0.4822
   0.000   0.3386   0.00653   0.00102  -0.0657  0.4148  0.2188  -0.7516   0.0000   0.4424
   0.500   0.3943   0.00621   0.00103  -0.0657  0.3935  0.3734  -0.8013   0.0000   0.4143
   1.000   0.4497   0.00584   0.00109  -0.0657  0.3782  0.5600  -0.8546   0.0000   0.3932
   1.500   0.5060   0.00564   0.00117  -0.0657  0.3654  0.6846  -0.9097   0.0000   0.3764
   2.000   0.5616   0.00548   0.00128  -0.0654  0.3554  0.8011  -0.9677   0.0000   0.3626
   2.500   0.6148   0.00539   0.00143  -0.0645  0.3413  0.9065  -1.0261   0.0000   0.3506
   3.000   0.6679   0.00539   0.00155  -0.0634  0.3380  0.9678  -1.0895   0.0000   0.3401
   4.000   0.8066   0.00578   0.00183  -0.0690  0.3154  0.9984  -1.2548   0.0000   0.3298
   4.500   0.8694   0.00591   0.00196  -0.0703  0.3095  1.0000  -1.3507   0.0000   0.3247
   5.000   0.9200   0.00617   0.00213  -0.0691  0.2897  1.0000  -1.4834   0.0000   0.3183
   5.500   0.9714   0.00647   0.00233  -0.0680  0.2696  1.0000  -1.6638   0.0000   0.3127
   6.000   1.0230   0.00686   0.00260  -0.0671  0.2421  1.0000  -1.8763   0.0000   0.3077
   6.500   1.0749   0.00731   0.00292  -0.0663  0.2142  1.0000  -2.1214   0.0000   0.3032
   7.000   1.1241   0.00803   0.00341  -0.0651  0.1708  1.0000  -2.3830   0.0000   0.2988
   7.500   1.1724   0.00884   0.00399  -0.0638  0.1293  1.0000  -2.6523   0.0000   0.2947
   8.000   1.2189   0.00979   0.00470  -0.0622  0.0868  1.0000  -2.9658   0.0000   0.2907
   8.500   1.2666   0.01061   0.00536  -0.0608  0.0624  1.0000  -3.3062   0.0000   0.2870
   9.000   1.3150   0.01132   0.00598  -0.0596  0.0466  1.0000  -3.6632   0.0000   0.2835
   9.500   1.3627   0.01204   0.00664  -0.0582  0.0361  1.0000  -4.0320   0.0000   0.2802
  10.000   1.4092   0.01279   0.00735  -0.0567  0.0289  1.0000  -4.4084   0.0000   0.2769
  10.500   1.4555   0.01349   0.00804  -0.0551  0.0243  1.0000  -4.8009   0.0000   0.2738
  11.000   1.4981   0.01436   0.00890  -0.0530  0.0188  1.0000  -5.2326   0.0000   0.2705
  11.500   1.5416   0.01507   0.00964  -0.0511  0.0179  1.0000  -5.7100   0.0000   0.2673
  12.000   1.5767   0.01599   0.01057  -0.0477  0.0156  1.0000  -6.1631   0.0000   0.2636
  12.500   1.6057   0.01714   0.01176  -0.0434  0.0127  1.0000  -6.5911   0.0000   0.2595
  13.500   1.6677   0.01944   0.01420  -0.0367  0.0117  1.0000  -7.5263   0.0000   0.2526
  14.000   1.6937   0.02100   0.01583  -0.0333  0.0109  1.0000  -7.9828   0.0000   0.2493
  14.500   1.7138   0.02310   0.01799  -0.0298  0.0098  1.0000  -8.4102   0.0000   0.2460
  15.000   1.7286   0.02578   0.02076  -0.0264  0.0086  1.0000  -8.8040   0.0000   0.2428
  15.500   1.7386   0.02919   0.02431  -0.0235  0.0078  1.0000  -9.1651   0.0000   0.2400
  16.000   1.7422   0.03353   0.02883  -0.0213  0.0074  1.0000  -9.4825   0.0000   0.2375
  16.500   1.7373   0.03916   0.03466  -0.0199  0.0070  1.0000  -9.7389   0.0000   0.2355
  17.000   1.7301   0.04562   0.04132  -0.0197  0.0069  1.0000  -9.9830   0.0000   0.2342
  17.500   1.7253   0.05209   0.04793  -0.0201  0.0069  1.0000  -10.2560   0.0000   0.2332
  18.000   1.7156   0.05951   0.05551  -0.0212  0.0068  1.0000  -10.4879   0.0000   0.2326
  18.500   1.6999   0.06803   0.06419  -0.0230  0.0068  1.0000  -10.6672   0.0000   0.2325
  19.000   1.6832   0.07662   0.07293  -0.0249  0.0068  1.0000  -10.8346   0.0000   0.2325
  19.500   1.6574   0.08682   0.08329  -0.0278  0.0067  1.0000  -10.9133   0.0000   0.2331
  20.000   1.6345   0.09675   0.09338  -0.0309  0.0067  1.0000  -11.0056   0.0000   0.2339
  20.500   1.6097   0.10698   0.10376  -0.0344  0.0066  1.0000  -11.0676   0.0000   0.2350
  21.000   1.5846   0.11743   0.11437  -0.0383  0.0065  1.0000  -11.1104   0.0000   0.2365
  21.500   1.5602   0.12809   0.12518  -0.0428  0.0064  1.0000  -11.1397   0.0000   0.2384
  22.000   1.5369   0.13880   0.13604  -0.0477  0.0062  1.0000  -11.1581   0.0000   0.2406
  22.500   1.5139   0.14960   0.14698  -0.0531  0.0060  1.0000  -11.1559   0.0000   0.2433
  23.000   1.4904   0.16065   0.15816  -0.0591  0.0058  1.0000  -11.1221   0.0000   0.2465
  23.500   1.4674   0.17214   0.16980  -0.0658  0.0055  1.0000  -11.0583   0.0000   0.2503
  24.000   1.4440   0.18416   0.18195  -0.0733  0.0053  1.0000  -10.9512   0.0000   0.2549
  24.500   1.4202   0.19679   0.19471  -0.0816  0.0050  1.0000  -10.8050   0.0000   0.2602
  25.000   1.3961   0.21004   0.20810  -0.0906  0.0047  1.0000  -10.6248   0.0000   0.2664


