XFLR5 v6.09.01 beta

 Calculated polar for: NACA 0012-1.5r

 1 1 Reynolds number fixed          Mach number fixed         

 xtrf =   1.000 (top)        1.000 (bottom)
 Mach =   0.139     Re =     3.000 e 6     Ncrit =   9.000

  alpha     CL        CD       CDp       Cm    Top Xtr Bot Xtr   Cpmin    Chinge    XCp    
 ------- -------- --------- --------- -------- ------- ------- -------- --------- ---------
 -10.000  -1.1441   0.01108   0.00614  -0.0025  1.0000  0.0278  -5.2623   0.0000   0.2360
  -9.500  -1.1006   0.01049   0.00555   0.0004  1.0000  0.0317  -4.9214   0.0000   0.2392
  -8.500  -0.9804   0.00956   0.00465  -0.0009  0.9974  0.0362  -4.1465   0.0000   0.2392
  -8.000  -0.9150   0.00910   0.00421  -0.0026  0.9954  0.0403  -3.7658   0.0000   0.2378
  -7.500  -0.8486   0.00861   0.00379  -0.0045  0.9936  0.0456  -3.3960   0.0000   0.2358
  -7.000  -0.7850   0.00827   0.00345  -0.0058  0.9895  0.0487  -3.0889   0.0000   0.2342
  -6.500  -0.7240   0.00784   0.00309  -0.0065  0.9820  0.0568  -2.8021   0.0000   0.2331
  -6.000  -0.6673   0.00756   0.00283  -0.0061  0.9698  0.0606  -2.5341   0.0000   0.2333
  -5.500  -0.6128   0.00722   0.00252  -0.0053  0.9533  0.0704  -2.2819   0.0000   0.2342
  -5.000  -0.5581   0.00695   0.00227  -0.0044  0.9320  0.0805  -2.0398   0.0000   0.2352
  -4.500  -0.5029   0.00674   0.00204  -0.0037  0.9046  0.0892  -1.8333   0.0000   0.2362
  -4.000  -0.4472   0.00653   0.00182  -0.0031  0.8722  0.1024  -1.6333   0.0000   0.2369
  -3.500  -0.3915   0.00637   0.00162  -0.0025  0.8306  0.1196  -1.4406   0.0000   0.2375
  -3.000  -0.3355   0.00622   0.00144  -0.0021  0.7833  0.1426  -1.2712   0.0000   0.2381
  -2.500  -0.2796   0.00610   0.00128  -0.0016  0.7287  0.1701  -1.1141   0.0000   0.2385
  -2.000  -0.2237   0.00598   0.00115  -0.0013  0.6711  0.2091  -0.9667   0.0000   0.2390
  -1.500  -0.1675   0.00589   0.00104  -0.0009  0.6121  0.2509  -0.8375   0.0000   0.2391
  -1.000  -0.1118   0.00576   0.00095  -0.0006  0.5537  0.3104  -0.7168   0.0000   0.2394
  -0.500  -0.0558   0.00571   0.00090  -0.0003  0.4932  0.3673  -0.6097   0.0000   0.2393
   0.000   0.0000   0.00571   0.00089  -0.0000  0.4282  0.4282  -0.5134   0.0000   0.2875
   0.500   0.0558   0.00571   0.00090   0.0003  0.3673  0.4932  -0.6097   0.0000   0.2393
   1.000   0.1118   0.00576   0.00095   0.0006  0.3104  0.5537  -0.7168   0.0000   0.2394
   1.500   0.1675   0.00589   0.00104   0.0009  0.2509  0.6121  -0.8375   0.0000   0.2391
   2.000   0.2237   0.00598   0.00115   0.0013  0.2091  0.6711  -0.9667   0.0000   0.2390
   2.500   0.2796   0.00610   0.00128   0.0016  0.1701  0.7287  -1.1141   0.0000   0.2386
   3.000   0.3355   0.00622   0.00144   0.0021  0.1426  0.7833  -1.2713   0.0000   0.2381
   3.500   0.3915   0.00637   0.00162   0.0025  0.1196  0.8306  -1.4407   0.0000   0.2376
   4.000   0.4473   0.00653   0.00182   0.0031  0.1024  0.8722  -1.6334   0.0000   0.2369
   4.500   0.5029   0.00674   0.00204   0.0037  0.0892  0.9046  -1.8333   0.0000   0.2362
   5.000   0.5582   0.00695   0.00227   0.0044  0.0804  0.9319  -2.0399   0.0000   0.2353
   5.500   0.6128   0.00722   0.00252   0.0053  0.0704  0.9533  -2.2820   0.0000   0.2342
   6.000   0.6674   0.00756   0.00283   0.0061  0.0606  0.9698  -2.5342   0.0000   0.2333
   6.500   0.7241   0.00784   0.00309   0.0065  0.0568  0.9820  -2.8023   0.0000   0.2331
   7.000   0.7851   0.00827   0.00345   0.0058  0.0487  0.9896  -3.0891   0.0000   0.2342
   7.500   0.8487   0.00861   0.00379   0.0045  0.0456  0.9936  -3.3962   0.0000   0.2358
   8.000   0.9150   0.00910   0.00421   0.0025  0.0403  0.9954  -3.7661   0.0000   0.2378
   8.500   0.9805   0.00956   0.00465   0.0008  0.0362  0.9975  -4.1469   0.0000   0.2392
   9.000   1.0455   0.00997   0.00506  -0.0008  0.0347  0.9993  -4.5443   0.0000   0.2402
   9.500   1.1004   0.01049   0.00555  -0.0003  0.0317  1.0000  -4.9208   0.0000   0.2391
  10.000   1.1440   0.01108   0.00613   0.0025  0.0278  1.0000  -5.2619   0.0000   0.2360
  10.500   1.1907   0.01156   0.00664   0.0048  0.0268  1.0000  -5.6295   0.0000   0.2335
  11.000   1.2395   0.01200   0.00710   0.0066  0.0262  1.0000  -6.0206   0.0000   0.2315
  11.500   1.2887   0.01257   0.00768   0.0081  0.0247  1.0000  -6.4206   0.0000   0.2297
  12.000   1.3369   0.01330   0.00840   0.0098  0.0227  1.0000  -6.8517   0.0000   0.2280
  12.500   1.3839   0.01417   0.00929   0.0116  0.0203  1.0000  -7.3106   0.0000   0.2261
  13.000   1.4288   0.01517   0.01041   0.0136  0.0188  1.0000  -7.7672   0.0000   0.2241
  13.500   1.4763   0.01586   0.01113   0.0152  0.0187  1.0000  -8.2664   0.0000   0.2225
  14.000   1.5225   0.01659   0.01191   0.0170  0.0186  1.0000  -8.7727   0.0000   0.2208
  14.500   1.5666   0.01741   0.01277   0.0190  0.0182  1.0000  -9.2800   0.0000   0.2189
  15.000   1.6072   0.01836   0.01379   0.0214  0.0175  1.0000  -9.7792   0.0000   0.2167
  15.500   1.6389   0.01951   0.01499   0.0251  0.0166  1.0000  -10.2375   0.0000   0.2138
  16.000   1.6637   0.02099   0.01653   0.0293  0.0157  1.0000  -10.6606   0.0000   0.2105
  16.500   1.6837   0.02292   0.01855   0.0333  0.0147  1.0000  -11.0540   0.0000   0.2073
  17.000   1.6983   0.02545   0.02122   0.0367  0.0139  1.0000  -11.4100   0.0000   0.2044
  17.500   1.7069   0.02885   0.02479   0.0392  0.0134  1.0000  -11.7228   0.0000   0.2019
  18.000   1.7072   0.03358   0.02973   0.0401  0.0130  1.0000  -11.9719   0.0000   0.2001
  18.500   1.6963   0.04024   0.03663   0.0391  0.0127  1.0000  -12.1275   0.0000   0.1993
  19.000   1.6703   0.04972   0.04636   0.0354  0.0125  1.0000  -12.1501   0.0000   0.1998
  19.500   1.6211   0.06313   0.06007   0.0286  0.0125  1.0000  -11.9622   0.0000   0.2019
  20.000   1.5454   0.08137   0.07861   0.0188  0.0125  1.0000  -11.5129   0.0000   0.2060
  20.500   1.4381   0.10511   0.10268   0.0058  0.0127  1.0000  -10.7249   0.0000   0.2128
  21.000   1.3119   0.13339   0.13128  -0.0105  0.0130  1.0000  -9.6456   0.0000   0.2239
  21.500   1.2243   0.15728   0.15542  -0.0251  0.0131  1.0000  -8.8021   0.0000   0.2356
  22.000   1.1567   0.17883   0.17720  -0.0387  0.0129  1.0000  -8.0473   0.0000   0.2479
  23.000   1.0591   0.22067   0.21943  -0.0655  0.0121  1.0000  -6.5547   0.0000   0.2757
  23.500   1.0424   0.23550   0.23433  -0.0748  0.0119  1.0000  -6.1506   0.0000   0.2852


