XFLR5 v6.09.01 beta

 Calculated polar for: NACA 0012-0.25r

 1 1 Reynolds number fixed          Mach number fixed         

 xtrf =   1.000 (top)        1.000 (bottom)
 Mach =   0.139     Re =     3.000 e 6     Ncrit =   9.000

  alpha     CL        CD       CDp       Cm    Top Xtr Bot Xtr   Cpmin    Chinge    XCp    
 ------- -------- --------- --------- -------- ------- ------- -------- --------- ---------
 -10.000  -0.9691   0.03192   0.02942  -0.0175  1.0000  0.0012  -10.3157   0.0000   0.2223
  -9.500  -0.9257   0.03281   0.03031  -0.0169  1.0000  0.0013  -8.6411   0.0000   0.2229
  -8.500  -0.9234   0.01573   0.01181   0.0004  0.9998  0.0022  -9.7888   0.0000   0.2424
  -8.000  -0.8590   0.01566   0.01174  -0.0021  0.9978  0.0026  -8.2287   0.0000   0.2401
  -7.500  -0.7943   0.01555   0.01163  -0.0046  0.9953  0.0029  -6.7965   0.0000   0.2372
  -7.000  -0.7371   0.01335   0.00922  -0.0059  0.9923  0.0035  -5.7971   0.0000   0.2354
  -6.500  -0.6867   0.01144   0.00715  -0.0054  0.9820  0.0039  -4.9602   0.0000   0.2360
  -6.000  -0.6387   0.01016   0.00574  -0.0040  0.9657  0.0041  -4.2727   0.0000   0.2380
  -5.500  -0.5921   0.00902   0.00441  -0.0021  0.9440  0.0042  -3.7884   0.0000   0.2411
  -5.000  -0.5419   0.00819   0.00339  -0.0009  0.9195  0.0042  -3.2921   0.0000   0.2434
  -4.500  -0.4891   0.00768   0.00272  -0.0003  0.8899  0.0047  -2.7496   0.0000   0.2448
  -4.000  -0.4355   0.00729   0.00213   0.0002  0.8542  0.0062  -2.3202   0.0000   0.2463
  -3.500  -0.3806   0.00702   0.00181   0.0003  0.8191  0.0182  -1.8002   0.0000   0.2468
  -3.000  -0.3360   0.00539   0.00107   0.0017  0.7780  0.2854  -1.3552   0.0000   0.2514
  -2.500  -0.2819   0.00505   0.00087   0.0018  0.7390  0.3628  -0.8862   0.0000   0.2527
  -2.000  -0.2266   0.00485   0.00075   0.0016  0.7000  0.4215  -0.5960   0.0000   0.2536
  -1.500  -0.1708   0.00474   0.00065   0.0013  0.6601  0.4688  -0.5440   0.0000   0.2545
  -1.000  -0.1139   0.00472   0.00060   0.0009  0.6232  0.4975  -0.4928   0.0000   0.2548
  -0.500  -0.0569   0.00471   0.00057   0.0005  0.5896  0.5259  -0.4453   0.0000   0.2548
   0.000  -0.0000   0.00470   0.00056  -0.0000  0.5576  0.5576  -0.3993   0.0000   0.0853
   0.500   0.0569   0.00471   0.00057  -0.0005  0.5259  0.5897  -0.4453   0.0000   0.2548
   1.000   0.1139   0.00472   0.00060  -0.0009  0.4974  0.6232  -0.4928   0.0000   0.2548
   1.500   0.1708   0.00474   0.00065  -0.0013  0.4688  0.6601  -0.5440   0.0000   0.2545
   2.000   0.2266   0.00485   0.00075  -0.0016  0.4215  0.7000  -0.5960   0.0000   0.2536
   2.500   0.2819   0.00505   0.00087  -0.0018  0.3628  0.7390  -0.8862   0.0000   0.2527
   3.000   0.3360   0.00539   0.00107  -0.0017  0.2853  0.7780  -1.3552   0.0000   0.2514
   3.500   0.3806   0.00702   0.00181  -0.0003  0.0182  0.8191  -1.8003   0.0000   0.2468
   4.000   0.4355   0.00729   0.00213  -0.0003  0.0062  0.8542  -2.3203   0.0000   0.2463
   4.500   0.4892   0.00768   0.00272   0.0003  0.0047  0.8899  -2.7498   0.0000   0.2448
   5.000   0.5420   0.00819   0.00339   0.0009  0.0042  0.9195  -3.2923   0.0000   0.2434
   5.500   0.5922   0.00902   0.00441   0.0021  0.0042  0.9440  -3.7887   0.0000   0.2411
   6.000   0.6387   0.01016   0.00574   0.0040  0.0041  0.9657  -4.2731   0.0000   0.2380
   6.500   0.6867   0.01144   0.00715   0.0054  0.0039  0.9820  -4.9609   0.0000   0.2361
   7.000   0.7372   0.01335   0.00922   0.0059  0.0035  0.9923  -5.7977   0.0000   0.2355
   8.000   0.8591   0.01566   0.01174   0.0020  0.0026  0.9979  -8.2306   0.0000   0.2401
   8.500   0.9236   0.01573   0.01181  -0.0005  0.0022  0.9998  -9.7910   0.0000   0.2424
   9.000   0.9695   0.01591   0.01200   0.0011  0.0017  1.0000  -11.1875   0.0000   0.2401
   9.500   1.0162   0.01598   0.01204   0.0027  0.0014  1.0000  -12.6928   0.0000   0.2380
  10.000   1.0581   0.01693   0.01308   0.0049  0.0011  1.0000  -14.0568   0.0000   0.2353
  10.500   1.0652   0.02266   0.01949   0.0119  0.0010  1.0000  -14.1431   0.0000   0.2283
  14.000   0.6486   0.16304   0.16207  -0.0242  0.0030  1.0000  -2.3580   0.0000   0.2738
  14.500   0.6561   0.17230   0.17133  -0.0279  0.0030  1.0000  -2.2635   0.0000   0.2786
  15.000   0.6649   0.18121   0.18023  -0.0316  0.0030  1.0000  -2.1836   0.0000   0.2830
  15.500   0.6746   0.18976   0.18877  -0.0352  0.0030  1.0000  -2.1192   0.0000   0.2872
  16.000   0.6859   0.19820   0.19721  -0.0389  0.0030  1.0000  -2.0682   0.0000   0.2912
  16.500   0.6982   0.20652   0.20552  -0.0427  0.0029  1.0000  -2.0262   0.0000   0.2951
  17.000   0.7115   0.21470   0.21371  -0.0466  0.0029  1.0000  -1.9921   0.0000   0.2988
  17.500   0.7255   0.22278   0.22179  -0.0505  0.0029  1.0000  -1.9628   0.0000   0.3023
  18.000   0.7403   0.23070   0.22970  -0.0545  0.0028  1.0000  -1.9424   0.0000   0.3057
  18.500   0.7563   0.23840   0.23741  -0.0585  0.0026  1.0000  -1.9347   0.0000   0.3087
  19.000   0.7725   0.24607   0.24508  -0.0624  0.0022  1.0000  -1.9290   0.0000   0.3116
  19.500   0.7880   0.25370   0.25271  -0.0665  0.0019  1.0000  -1.9377   0.0000   0.3145
  20.000   0.8036   0.26115   0.26016  -0.0707  0.0016  1.0000  -1.9597   0.0000   0.3173
  20.500   0.8204   0.26783   0.26684  -0.0751  0.0014  1.0000  -1.9958   0.0000   0.3200
  21.000   0.8374   0.27423   0.27324  -0.0796  0.0013  1.0000  -2.0411   0.0000   0.3226
  21.500   0.8542   0.28060   0.27962  -0.0841  0.0012  1.0000  -2.0980   0.0000   0.3252
  22.000   0.8707   0.28706   0.28608  -0.0886  0.0011  1.0000  -2.1653   0.0000   0.3276
  22.500   0.8868   0.29348   0.29251  -0.0931  0.0010  1.0000  -2.2548   0.0000   0.3299
  23.000   0.9026   0.29979   0.29882  -0.0976  0.0010  1.0000  -2.3852   0.0000   0.3320
  23.500   0.9179   0.30605   0.30508  -0.1021  0.0009  1.0000  -2.5391   0.0000   0.3341


