XFLR5 v6.09.01 beta

 Calculated polar for: NACA 0012-2.0r

 1 1 Reynolds number fixed          Mach number fixed         

 xtrf =   1.000 (top)        1.000 (bottom)
 Mach =   0.139     Re =     3.000 e 6     Ncrit =   9.000

  alpha     CL        CD       CDp       Cm    Top Xtr Bot Xtr   Cpmin    Chinge    XCp    
 ------- -------- --------- --------- -------- ------- ------- -------- --------- ---------
 -10.000  -1.1521   0.01089   0.00599  -0.0044  1.0000  0.0363  -5.0605   0.0000   0.2338
  -9.500  -1.1069   0.01043   0.00551  -0.0017  1.0000  0.0380  -4.7642   0.0000   0.2368
  -8.500  -0.9870   0.00941   0.00455  -0.0025  0.9975  0.0452  -4.1101   0.0000   0.2369
  -8.000  -0.9208   0.00904   0.00420  -0.0041  0.9955  0.0468  -3.7774   0.0000   0.2355
  -7.500  -0.8536   0.00868   0.00384  -0.0060  0.9938  0.0488  -3.4539   0.0000   0.2334
  -7.000  -0.7895   0.00822   0.00345  -0.0073  0.9904  0.0550  -3.1512   0.0000   0.2318
  -6.500  -0.7278   0.00790   0.00316  -0.0079  0.9832  0.0586  -2.8879   0.0000   0.2305
  -6.000  -0.6696   0.00762   0.00290  -0.0077  0.9724  0.0619  -2.6485   0.0000   0.2303
  -5.500  -0.6145   0.00729   0.00261  -0.0068  0.9568  0.0693  -2.4229   0.0000   0.2311
  -5.000  -0.5592   0.00708   0.00239  -0.0059  0.9361  0.0724  -2.2026   0.0000   0.2320
  -4.500  -0.5040   0.00685   0.00215  -0.0050  0.9080  0.0812  -1.9910   0.0000   0.2330
  -4.000  -0.4483   0.00672   0.00195  -0.0042  0.8684  0.0870  -1.7938   0.0000   0.2339
  -3.500  -0.3930   0.00661   0.00174  -0.0033  0.8082  0.0993  -1.6192   0.0000   0.2350
  -3.000  -0.3368   0.00660   0.00158  -0.0027  0.7440  0.1094  -1.4483   0.0000   0.2356
  -2.500  -0.2801   0.00658   0.00144  -0.0022  0.6819  0.1210  -1.2822   0.0000   0.2358
  -2.000  -0.2235   0.00654   0.00132  -0.0018  0.6187  0.1418  -1.1307   0.0000   0.2359
  -1.500  -0.1670   0.00655   0.00123  -0.0014  0.5492  0.1657  -0.9944   0.0000   0.2357
  -1.000  -0.1109   0.00660   0.00116  -0.0010  0.4686  0.1962  -0.8628   0.0000   0.2355
  -0.500  -0.0551   0.00661   0.00111  -0.0005  0.3936  0.2467  -0.7430   0.0000   0.2349
   0.000  -0.0000   0.00666   0.00110  -0.0000  0.3090  0.3090  -0.6351   0.0000  -0.1287
   0.500   0.0551   0.00661   0.00111   0.0005  0.2467  0.3936  -0.7430   0.0000   0.2349
   1.000   0.1109   0.00660   0.00116   0.0010  0.1962  0.4686  -0.8628   0.0000   0.2355
   1.500   0.1670   0.00655   0.00123   0.0014  0.1657  0.5492  -0.9944   0.0000   0.2357
   2.000   0.2235   0.00654   0.00132   0.0018  0.1418  0.6188  -1.1307   0.0000   0.2359
   2.500   0.2801   0.00658   0.00144   0.0022  0.1210  0.6819  -1.2822   0.0000   0.2358
   3.000   0.3368   0.00660   0.00158   0.0027  0.1094  0.7441  -1.4483   0.0000   0.2356
   3.500   0.3930   0.00661   0.00174   0.0033  0.0993  0.8083  -1.6192   0.0000   0.2350
   4.000   0.4483   0.00672   0.00195   0.0041  0.0870  0.8684  -1.7938   0.0000   0.2339
   4.500   0.5041   0.00685   0.00215   0.0049  0.0812  0.9080  -1.9911   0.0000   0.2330
   5.000   0.5592   0.00708   0.00239   0.0059  0.0724  0.9361  -2.2027   0.0000   0.2320
   5.500   0.6145   0.00729   0.00261   0.0068  0.0693  0.9568  -2.4230   0.0000   0.2311
   6.000   0.6697   0.00762   0.00290   0.0077  0.0619  0.9724  -2.6486   0.0000   0.2304
   6.500   0.7278   0.00790   0.00316   0.0079  0.0586  0.9832  -2.8880   0.0000   0.2306
   7.000   0.7896   0.00822   0.00345   0.0072  0.0550  0.9904  -3.1513   0.0000   0.2318
   7.500   0.8537   0.00868   0.00383   0.0060  0.0488  0.9938  -3.4541   0.0000   0.2335
   8.000   0.9209   0.00904   0.00420   0.0041  0.0468  0.9955  -3.7777   0.0000   0.2355
   8.500   0.9871   0.00941   0.00455   0.0025  0.0452  0.9975  -4.1104   0.0000   0.2369
   9.000   1.0518   0.00988   0.00498   0.0011  0.0421  0.9993  -4.4486   0.0000   0.2379
   9.500   1.1067   0.01043   0.00551   0.0017  0.0380  1.0000  -4.7636   0.0000   0.2367
  10.500   1.2002   0.01126   0.00636   0.0065  0.0358  1.0000  -5.3796   0.0000   0.2315
  11.000   1.2491   0.01170   0.00681   0.0084  0.0348  1.0000  -5.7153   0.0000   0.2294
  11.500   1.2986   0.01226   0.00737   0.0101  0.0330  1.0000  -6.0927   0.0000   0.2277
  12.000   1.3477   0.01295   0.00805   0.0118  0.0308  1.0000  -6.4763   0.0000   0.2259
  12.500   1.3958   0.01374   0.00886   0.0135  0.0284  1.0000  -6.8615   0.0000   0.2242
  13.000   1.4427   0.01461   0.00982   0.0154  0.0269  1.0000  -7.2490   0.0000   0.2224
  13.500   1.4917   0.01523   0.01047   0.0170  0.0268  1.0000  -7.6666   0.0000   0.2208
  14.000   1.5397   0.01588   0.01117   0.0186  0.0266  1.0000  -8.0892   0.0000   0.2192
  14.500   1.5859   0.01661   0.01194   0.0205  0.0262  1.0000  -8.5132   0.0000   0.2175
  15.000   1.6296   0.01745   0.01282   0.0227  0.0255  1.0000  -8.9333   0.0000   0.2156
  15.500   1.6691   0.01845   0.01387   0.0253  0.0245  1.0000  -9.3405   0.0000   0.2133
  16.000   1.6990   0.01963   0.01511   0.0294  0.0234  1.0000  -9.7083   0.0000   0.2102
  16.500   1.7238   0.02115   0.01669   0.0335  0.0223  1.0000  -10.0521   0.0000   0.2071
  17.000   1.7436   0.02312   0.01875   0.0374  0.0209  1.0000  -10.3681   0.0000   0.2040
  17.500   1.7577   0.02570   0.02148   0.0408  0.0200  1.0000  -10.6503   0.0000   0.2012
  18.000   1.7648   0.02921   0.02518   0.0432  0.0194  1.0000  -10.8892   0.0000   0.1988
  18.500   1.7624   0.03422   0.03041   0.0440  0.0190  1.0000  -11.0636   0.0000   0.1970
  19.000   1.7587   0.04008   0.03645   0.0431  0.0188  1.0000  -11.2320   0.0000   0.1962
  19.500   1.7489   0.04737   0.04393   0.0405  0.0188  1.0000  -11.3776   0.0000   0.1962
  20.000   1.7167   0.05811   0.05489   0.0353  0.0188  1.0000  -11.3526   0.0000   0.1973
  20.500   1.6401   0.07595   0.07306   0.0255  0.0188  1.0000  -10.9634   0.0000   0.2009
  21.000   1.3906   0.12158   0.11935  -0.0015  0.0188  1.0000  -9.0902   0.0000   0.2163
  21.500   1.2801   0.14813   0.14619  -0.0179  0.0188  1.0000  -8.2099   0.0000   0.2283
  22.000   1.2117   0.16879   0.16705  -0.0311  0.0188  1.0000  -7.6124   0.0000   0.2391
  22.500   1.1740   0.18458   0.18298  -0.0413  0.0187  1.0000  -7.2560   0.0000   0.2479
  23.000   1.1625   0.19543   0.19390  -0.0485  0.0186  1.0000  -7.1503   0.0000   0.2534
  23.500   1.1365   0.21024   0.20883  -0.0585  0.0182  1.0000  -6.8258   0.0000   0.2623
  24.000   1.0930   0.23094   0.22966  -0.0723  0.0168  1.0000  -6.1630   0.0000   0.2768


