XFLR5 v6.09.01 beta

 Calculated polar for: NACA 0012-0.5r

 1 1 Reynolds number fixed          Mach number fixed         

 xtrf =   1.000 (top)        1.000 (bottom)
 Mach =   0.139     Re =     3.000 e 6     Ncrit =   9.000

  alpha     CL        CD       CDp       Cm    Top Xtr Bot Xtr   Cpmin    Chinge    XCp    
 ------- -------- --------- --------- -------- ------- ------- -------- --------- ---------
 -10.000  -1.0965   0.01386   0.00938  -0.0021  1.0000  0.0038  -8.5395   0.0000   0.2377
  -9.500  -1.0603   0.01265   0.00802   0.0016  1.0000  0.0040  -7.9527   0.0000   0.2418
  -8.500  -0.9589   0.01065   0.00581   0.0032  0.9977  0.0056  -6.6888   0.0000   0.2448
  -8.000  -0.8941   0.01021   0.00540   0.0011  0.9955  0.0067  -5.8793   0.0000   0.2432
  -7.000  -0.7685   0.00910   0.00422  -0.0023  0.9881  0.0079  -4.4614   0.0000   0.2400
  -6.500  -0.7088   0.00852   0.00361  -0.0032  0.9797  0.0102  -3.8571   0.0000   0.2390
  -6.000  -0.6552   0.00816   0.00324  -0.0026  0.9646  0.0121  -3.2892   0.0000   0.2399
  -5.500  -0.6027   0.00774   0.00282  -0.0018  0.9451  0.0183  -2.7692   0.0000   0.2414
  -5.000  -0.5491   0.00740   0.00245  -0.0012  0.9220  0.0283  -2.2963   0.0000   0.2425
  -4.500  -0.4967   0.00684   0.00202  -0.0005  0.8942  0.0713  -1.9281   0.0000   0.2439
  -4.000  -0.4463   0.00601   0.00154   0.0003  0.8603  0.1744  -1.5885   0.0000   0.2460
  -3.500  -0.3934   0.00552   0.00124   0.0008  0.8231  0.2533  -1.2581   0.0000   0.2476
  -3.000  -0.3383   0.00525   0.00104   0.0009  0.7854  0.3053  -0.9543   0.0000   0.2484
  -2.500  -0.2840   0.00497   0.00088   0.0011  0.7412  0.3793  -0.7219   0.0000   0.2498
  -2.000  -0.2276   0.00485   0.00078   0.0010  0.7030  0.4171  -0.6162   0.0000   0.2503
  -1.500  -0.1709   0.00483   0.00071   0.0008  0.6617  0.4477  -0.5554   0.0000   0.2507
  -1.000  -0.1139   0.00481   0.00066   0.0005  0.6215  0.4780  -0.4994   0.0000   0.2508
  -0.500  -0.0568   0.00479   0.00063   0.0002  0.5853  0.5113  -0.4472   0.0000   0.2506
   0.000  -0.0000   0.00477   0.00062  -0.0000  0.5492  0.5492  -0.3983   0.0000  -0.0062
   0.500   0.0568   0.00479   0.00063  -0.0002  0.5112  0.5853  -0.4472   0.0000   0.2506
   1.000   0.1139   0.00481   0.00066  -0.0005  0.4780  0.6215  -0.4994   0.0000   0.2508
   1.500   0.1709   0.00483   0.00071  -0.0008  0.4477  0.6616  -0.5554   0.0000   0.2507
   2.000   0.2276   0.00485   0.00078  -0.0010  0.4171  0.7030  -0.6162   0.0000   0.2503
   2.500   0.2840   0.00497   0.00088  -0.0011  0.3793  0.7412  -0.7219   0.0000   0.2498
   3.000   0.3383   0.00525   0.00104  -0.0009  0.3052  0.7854  -0.9543   0.0000   0.2484
   3.500   0.3934   0.00552   0.00124  -0.0008  0.2533  0.8231  -1.2581   0.0000   0.2476
   4.000   0.4463   0.00601   0.00154  -0.0003  0.1743  0.8604  -1.5886   0.0000   0.2460
   4.500   0.4967   0.00684   0.00202   0.0005  0.0713  0.8942  -1.9283   0.0000   0.2439
   5.000   0.5491   0.00740   0.00245   0.0012  0.0283  0.9220  -2.2965   0.0000   0.2425
   5.500   0.6028   0.00774   0.00282   0.0017  0.0183  0.9451  -2.7695   0.0000   0.2414
   6.500   0.7088   0.00852   0.00361   0.0031  0.0102  0.9796  -3.8575   0.0000   0.2390
   7.000   0.7685   0.00910   0.00422   0.0023  0.0079  0.9881  -4.4617   0.0000   0.2400
   7.500   0.8278   0.00988   0.00512   0.0014  0.0069  0.9937  -5.0869   0.0000   0.2408
   8.000   0.8942   0.01021   0.00540  -0.0011  0.0067  0.9956  -5.8800   0.0000   0.2432
   8.500   0.9590   0.01065   0.00581  -0.0032  0.0056  0.9978  -6.6895   0.0000   0.2448
   9.000   1.0201   0.01162   0.00685  -0.0047  0.0042  0.9998  -7.3691   0.0000   0.2454
   9.500   1.0602   0.01265   0.00802  -0.0016  0.0040  1.0000  -7.9520   0.0000   0.2417
  10.000   1.0965   0.01386   0.00938   0.0021  0.0038  1.0000  -8.5394   0.0000   0.2377
  10.500   1.1332   0.01535   0.01106   0.0054  0.0037  1.0000  -9.1362   0.0000   0.2342
  11.000   1.1686   0.01712   0.01303   0.0085  0.0037  1.0000  -9.7374   0.0000   0.2309
  11.500   1.1997   0.01922   0.01536   0.0120  0.0037  1.0000  -10.3134   0.0000   0.2275
  12.000   1.2240   0.02170   0.01809   0.0161  0.0037  1.0000  -10.8386   0.0000   0.2235
  12.500   1.2328   0.02450   0.02115   0.0221  0.0037  1.0000  -11.2466   0.0000   0.2180
  13.000   1.2324   0.02812   0.02505   0.0273  0.0037  1.0000  -11.5660   0.0000   0.2129
  13.500   1.2245   0.03311   0.03033   0.0303  0.0037  1.0000  -11.7949   0.0000   0.2094
  14.000   1.2088   0.04017   0.03769   0.0299  0.0037  1.0000  -11.9568   0.0000   0.2083
  14.500   1.1848   0.04983   0.04765   0.0260  0.0037  1.0000  -11.9987   0.0000   0.2100
  15.000   1.1521   0.06224   0.06032   0.0191  0.0037  1.0000  -11.8653   0.0000   0.2142
  15.500   1.1105   0.07719   0.07552   0.0105  0.0037  1.0000  -11.5409   0.0000   0.2202
  16.000   1.0614   0.09444   0.09299   0.0010  0.0038  1.0000  -11.0163   0.0000   0.2278
  16.500   1.0035   0.11487   0.11361  -0.0097  0.0038  1.0000  -10.2078   0.0000   0.2377
  22.000   0.8685   0.28338   0.28238  -0.0884  0.0030  1.0000  -1.9783   0.0000   0.3268
  22.500   0.8846   0.29046   0.28946  -0.0930  0.0030  1.0000  -1.9542   0.0000   0.3293
  23.000   0.9006   0.29760   0.29660  -0.0976  0.0030  1.0000  -1.9340   0.0000   0.3316
  23.500   0.9164   0.30478   0.30378  -0.1022  0.0030  1.0000  -1.9173   0.0000   0.3338
  24.000   0.9321   0.31192   0.31093  -0.1069  0.0029  1.0000  -1.9100   0.0000   0.3359
  24.500   0.9477   0.31913   0.31814  -0.1116  0.0029  1.0000  -1.9007   0.0000   0.3380
  25.000   0.9631   0.32635   0.32537  -0.1163  0.0029  1.0000  -1.8935   0.0000   0.3400


